!-Generator IDFEditor 1.51
!-Option SortedOrder

!-NOTE: All comments with '!-' are ignored by the IDFEditor and are generated automatically.
!-      Use '!' comments if they need to be retained when using the IDFEditor.


!-   ===========  ALL OBJECTS IN CLASS: VERSION ===========

! WaterHeaterHeatPumpStratifiedTank.idf
!
! Basic file description:
! This input file illustrates WATER USE EQUIPMENT objects connected to a WATER HEATER:STRATIFIED object in a simple
! plant loop for domestic hot water.
!
! Location:                Chicago, IL
!
! Design Days:             CHICAGO_IL_USA Annual Heating 99% Design Conditions DB, MaxDB= -17.3°C
!                          CHICAGO_IL_USA Annual Cooling 1% Design Conditions, MaxDB=  31.5°C MCWB=  23.0°C
!
! Run:      1 short run period.
! Building: None.
! System:   None.
! Plant:    Plant loop with one WaterHeater:Stratified object with heat pump water heating connected to two water use equipment
Version,
    9.6;                     !- Version Identifier


!-   ===========  ALL OBJECTS IN CLASS: SIMULATIONCONTROL ===========

SimulationControl,
    NO,                      !- Do Zone Sizing Calculation
    NO,                      !- Do System Sizing Calculation
    NO,                      !- Do Plant Sizing Calculation
    NO,                      !- Run Simulation for Sizing Periods
    YES,                     !- Run Simulation for Weather File Run Periods
    No,                      !- Do HVAC Sizing Simulation for Sizing Periods
    1;                       !- Maximum Number of HVAC Sizing Simulation Passes


!-   ===========  ALL OBJECTS IN CLASS: BUILDING ===========

Building,
    Water Heater DHW Plant Loop Example,  !- Name
    0.0,                     !- North Axis {deg}
    Suburbs,                 !- Terrain
    0.04,                    !- Loads Convergence Tolerance Value {W}
    0.04,                    !- Temperature Convergence Tolerance Value {deltaC}
    FullInteriorAndExterior, !- Solar Distribution
    25,                      !- Maximum Number of Warmup Days
    6;                       !- Minimum Number of Warmup Days


!-   ===========  ALL OBJECTS IN CLASS: TIMESTEP ===========

Timestep,
    60;                      !- Number of Timesteps per Hour


!-   ===========  ALL OBJECTS IN CLASS: SITE:LOCATION ===========

Site:Location,
    CHICAGO_IL_USA TMY2-94846,  !- Name
    41.78,                   !- Latitude {deg}
    -87.75,                  !- Longitude {deg}
    -6.00,                   !- Time Zone {hr}
    190.00;                  !- Elevation {m}


!-   ===========  ALL OBJECTS IN CLASS: SIZINGPERIOD:DESIGNDAY ===========

! CHICAGO_IL_USA Annual Heating 99% Design Conditions DB, MaxDB= -17.3°C
SizingPeriod:DesignDay,
    CHICAGO_IL_USA Annual Heating 99% Design Conditions DB,  !- Name
    1,                       !- Month
    21,                      !- Day of Month
    WinterDesignDay,         !- Day Type
    -17.3,                   !- Maximum Dry-Bulb Temperature {C}
    0.0,                     !- Daily Dry-Bulb Temperature Range {deltaC}
    ,                        !- Dry-Bulb Temperature Range Modifier Type
    ,                        !- Dry-Bulb Temperature Range Modifier Day Schedule Name
    Wetbulb,                 !- Humidity Condition Type
    -17.3,                   !- Wetbulb or DewPoint at Maximum Dry-Bulb {C}
    ,                        !- Humidity Condition Day Schedule Name
    ,                        !- Humidity Ratio at Maximum Dry-Bulb {kgWater/kgDryAir}
    ,                        !- Enthalpy at Maximum Dry-Bulb {J/kg}
    ,                        !- Daily Wet-Bulb Temperature Range {deltaC}
    99063.,                  !- Barometric Pressure {Pa}
    4.9,                     !- Wind Speed {m/s}
    270,                     !- Wind Direction {deg}
    No,                      !- Rain Indicator
    No,                      !- Snow Indicator
    No,                      !- Daylight Saving Time Indicator
    ASHRAEClearSky,          !- Solar Model Indicator
    ,                        !- Beam Solar Day Schedule Name
    ,                        !- Diffuse Solar Day Schedule Name
    ,                        !- ASHRAE Clear Sky Optical Depth for Beam Irradiance (taub) {dimensionless}
    ,                        !- ASHRAE Clear Sky Optical Depth for Diffuse Irradiance (taud) {dimensionless}
    0.0;                     !- Sky Clearness

! CHICAGO_IL_USA Annual Cooling 1% Design Conditions, MaxDB=  31.5°C MCWB=  23.0°C
SizingPeriod:DesignDay,
    CHICAGO_IL_USA Annual Cooling 1% Design Conditions DB/MCWB,  !- Name
    7,                       !- Month
    21,                      !- Day of Month
    SummerDesignDay,         !- Day Type
    31.5,                    !- Maximum Dry-Bulb Temperature {C}
    10.7,                    !- Daily Dry-Bulb Temperature Range {deltaC}
    ,                        !- Dry-Bulb Temperature Range Modifier Type
    ,                        !- Dry-Bulb Temperature Range Modifier Day Schedule Name
    Wetbulb,                 !- Humidity Condition Type
    23.0,                    !- Wetbulb or DewPoint at Maximum Dry-Bulb {C}
    ,                        !- Humidity Condition Day Schedule Name
    ,                        !- Humidity Ratio at Maximum Dry-Bulb {kgWater/kgDryAir}
    ,                        !- Enthalpy at Maximum Dry-Bulb {J/kg}
    ,                        !- Daily Wet-Bulb Temperature Range {deltaC}
    99063.,                  !- Barometric Pressure {Pa}
    5.3,                     !- Wind Speed {m/s}
    230,                     !- Wind Direction {deg}
    No,                      !- Rain Indicator
    No,                      !- Snow Indicator
    No,                      !- Daylight Saving Time Indicator
    ASHRAEClearSky,          !- Solar Model Indicator
    ,                        !- Beam Solar Day Schedule Name
    ,                        !- Diffuse Solar Day Schedule Name
    ,                        !- ASHRAE Clear Sky Optical Depth for Beam Irradiance (taub) {dimensionless}
    ,                        !- ASHRAE Clear Sky Optical Depth for Diffuse Irradiance (taud) {dimensionless}
    1.0;                     !- Sky Clearness


!-   ===========  ALL OBJECTS IN CLASS: RUNPERIOD ===========

RunPeriod,
    Aug,                     !- Name
    8,                       !- Begin Month
    1,                       !- Begin Day of Month
    ,                        !- Begin Year
    8,                       !- End Month
    14,                      !- End Day of Month
    ,                        !- End Year
    Sunday,                  !- Day of Week for Start Day
    Yes,                     !- Use Weather File Holidays and Special Days
    Yes,                     !- Use Weather File Daylight Saving Period
    No,                      !- Apply Weekend Holiday Rule
    Yes,                     !- Use Weather File Rain Indicators
    Yes;                     !- Use Weather File Snow Indicators


!-   ===========  ALL OBJECTS IN CLASS: SITE:GROUNDTEMPERATURE:BUILDINGSURFACE ===========

Site:GroundTemperature:BuildingSurface,
    20.03,                   !- January Ground Temperature {C}
    20.03,                   !- February Ground Temperature {C}
    20.13,                   !- March Ground Temperature {C}
    20.30,                   !- April Ground Temperature {C}
    20.43,                   !- May Ground Temperature {C}
    20.52,                   !- June Ground Temperature {C}
    20.62,                   !- July Ground Temperature {C}
    20.77,                   !- August Ground Temperature {C}
    20.78,                   !- September Ground Temperature {C}
    20.55,                   !- October Ground Temperature {C}
    20.44,                   !- November Ground Temperature {C}
    20.20;                   !- December Ground Temperature {C}


!-   ===========  ALL OBJECTS IN CLASS: SITE:WATERMAINSTEMPERATURE ===========

Site:WaterMainsTemperature,
    CORRELATION,             !- Calculation Method
    ,                        !- Temperature Schedule Name
    9.69,                    !- Annual Average Outdoor Air Temperature {C}
    28.1;                    !- Maximum Difference In Monthly Average Outdoor Air Temperatures {deltaC}


!-   ===========  ALL OBJECTS IN CLASS: SCHEDULETYPELIMITS ===========

ScheduleTypeLimits,
    Any Number;              !- Name


!-   ===========  ALL OBJECTS IN CLASS: SCHEDULE:COMPACT ===========

Schedule:Compact,
    Always On,               !- Name
    Any Number,              !- Schedule Type Limits Name
    THROUGH: 12/31,          !- Field 1
    FOR: AllDays,            !- Field 2
    UNTIL: 24:00,            !- Field 3
    1;                       !- Field 4

Schedule:Compact,
    Ambient Temp Schedule,   !- Name
    Any Number,              !- Schedule Type Limits Name
    THROUGH: 12/31,          !- Field 1
    FOR: AllDays,            !- Field 2
    UNTIL: 24:00,            !- Field 3
    22.0;                    !- Field 4

Schedule:Compact,
    Hot Water Set Point Temp Schedule,  !- Name
    Any Number,              !- Schedule Type Limits Name
    THROUGH: 12/31,          !- Field 1
    FOR: AllDays,            !- Field 2
    UNTIL: 24:00,            !- Field 3
    43.89;                   !- Field 4

Schedule:Compact,
    Sinks and Showers Temp Schedule,  !- Name
    Any Number,              !- Schedule Type Limits Name
    THROUGH: 12/31,          !- Field 1
    FOR: AllDays,            !- Field 2
    UNTIL: 24:00,            !- Field 3
     40.56;                  !- Field 4

Schedule:Compact,
    PlantHPWHSch,            !- Name
    Any Number,              !- Schedule Type Limits Name
    Through: 12/31,          !- Field 1
    For: AllDays,            !- Field 2
    Until: 24:00,            !- Field 3
    1.0;                     !- Field 4

Schedule:Compact,
    PlantHPWHTempSch,        !- Name
    Any Number,              !- Schedule Type Limits Name
    Through: 12/31,          !- Field 1
    For: AllDays,            !- Field 2
    Until: 24:00,            !- Field 3
    48.89;                   !- Field 4

Schedule:Compact,
    Sinks Flow Schedule,     !- Name
    Any Number,              !- Schedule Type Limits Name
    THROUGH: 12/31,          !- Field 1
    FOR: AllDays,            !- Field 2
    UNTIL: 1:00,             !- Field 3
    0.003,                   !- Field 4
    UNTIL: 2:00,             !- Field 5
    0.001,                   !- Field 6
    UNTIL: 3:00,             !- Field 7
    0,                       !- Field 8
    UNTIL: 4:00,             !- Field 9
    0,                       !- Field 10
    UNTIL: 5:00,             !- Field 11
    0.001,                   !- Field 12
    UNTIL: 6:00,             !- Field 13
    0.028,                   !- Field 14
    UNTIL: 7:00,             !- Field 15
    0.105,                   !- Field 16
    UNTIL: 8:00,             !- Field 17
    0.1,                     !- Field 18
    UNTIL: 9:00,             !- Field 19
    0.081,                   !- Field 20
    UNTIL: 10:00,            !- Field 21
    0.059,                   !- Field 22
    UNTIL: 11:00,            !- Field 23
    0.051,                   !- Field 24
    UNTIL: 12:00,            !- Field 25
    0.037,                   !- Field 26
    UNTIL: 13:00,            !- Field 27
    0.031,                   !- Field 28
    UNTIL: 14:00,            !- Field 29
    0.026,                   !- Field 30
    UNTIL: 15:00,            !- Field 31
    0.023,                   !- Field 32
    UNTIL: 16:00,            !- Field 33
    0.033,                   !- Field 34
    UNTIL: 17:00,            !- Field 35
    0.041,                   !- Field 36
    UNTIL: 18:00,            !- Field 37
    0.063,                   !- Field 38
    UNTIL: 19:00,            !- Field 39
    0.075,                   !- Field 40
    UNTIL: 20:00,            !- Field 41
    0.066,                   !- Field 42
    UNTIL: 21:00,            !- Field 43
    0.059,                   !- Field 44
    UNTIL: 22:00,            !- Field 45
    0.046,                   !- Field 46
    UNTIL: 23:00,            !- Field 47
    0.046,                   !- Field 48
    UNTIL: 24:00,            !- Field 49
    0.025;                   !- Field 50

Schedule:Compact,
    Showers Flow Schedule,   !- Name
    Any Number,              !- Schedule Type Limits Name
    THROUGH: 12/31,          !- Field 1
    FOR: AllDays,            !- Field 2
    UNTIL: 3:00,             !- Field 3
    0,                       !- Field 4
    UNTIL: 5:00,             !- Field 5
    0.2,                     !- Field 6
    UNTIL: 7:00,             !- Field 7
    0,                       !- Field 8
    UNTIL: 7:10,             !- Field 9
    1.0,                     !- Field 10
    UNTIL: 10:00,            !- Field 11
    0,                       !- Field 12
    UNTIL: 10:30,            !- Field 13
    0.3,                     !- Field 14
    UNTIL: 13:00,            !- Field 15
    0,                       !- Field 16
    UNTIL: 13:10,            !- Field 17
    0.5,                     !- Field 18
    UNTIL: 16:00,            !- Field 19
    0,                       !- Field 20
    UNTIL: 22:00,            !- Field 21
    0.1,                     !- Field 22
    UNTIL: 24:00,            !- Field 23
    0;                       !- Field 24


!-   ===========  ALL OBJECTS IN CLASS: GLOBALGEOMETRYRULES ===========

GlobalGeometryRules,
    UpperLeftCorner,         !- Starting Vertex Position
    CounterClockWise,        !- Vertex Entry Direction
    Relative;                !- Coordinate System


!-   ===========  ALL OBJECTS IN CLASS: SIZING:PLANT ===========

!***PLANT DHW LOOP***
Sizing:Plant,
    DHW Loop,                !- Plant or Condenser Loop Name
    HEATING,                 !- Loop Type
    82.,                     !- Design Loop Exit Temperature {C}
    11;                      !- Loop Design Temperature Difference {deltaC}


!-   ===========  ALL OBJECTS IN CLASS: FAN:SYSTEMMODEL ===========

Fan:SystemModel,
    HPWHPlantFan,            !- Name
    PlantHPWHSch,            !- Availability Schedule Name
    HPPlantAirOutletNode,    !- Air Inlet Node Name
    HPPlantFanAirOutletNode, !- Air Outlet Node Name
    0.2279,                  !- Design Maximum Air Flow Rate {m3/s}
    Discrete,                !- Speed Control Method
    0.0,                     !- Electric Power Minimum Flow Rate Fraction
    65.0,                    !- Design Pressure Rise {Pa}
    1.0,                     !- Motor Efficiency
    0.0,                     !- Motor In Air Stream Fraction
    AUTOSIZE,                !- Design Electric Power Consumption {W}
    TotalEfficiencyAndPressure,  !- Design Power Sizing Method
    ,                        !- Electric Power Per Unit Flow Rate {W/(m3/s)}
    ,                        !- Electric Power Per Unit Flow Rate Per Unit Pressure {W/((m3/s)-Pa)}
    0.1722;                  !- Fan Total Efficiency


!-   ===========  ALL OBJECTS IN CLASS: COIL:WATERHEATING:AIRTOWATERHEATPUMP:PUMPED ===========

Coil:WaterHeating:AirToWaterHeatPump:Pumped,
    HPWHPlantDXCoil,         !- Name
    4500,                  !- Rated Heating Capacity {W}
    2.4,                     !- Rated COP {W/W}
    0.981,                   !- Rated Sensible Heat Ratio
    19.72,                   !- Rated Evaporator Inlet Air Dry-Bulb Temperature {C}
    13.5,                    !- Rated Evaporator Inlet Air Wet-Bulb Temperature {C}
    48.89,                   !- Rated Condenser Inlet Water Temperature {C}
    0.189,                   !- Rated Evaporator Air Flow Rate {m3/s}
    0.00033,                 !- Rated Condenser Water Flow Rate {m3/s}
    Yes,                     !- Evaporator Fan Power Included in Rated COP
    No,                      !- Condenser Pump Power Included in Rated COP
    No,                      !- Condenser Pump Heat Included in Rated Heating Capacity and Rated COP
    150.0,                   !- Condenser Water Pump Power {W}
    0.1,                     !- Fraction of Condenser Pump Heat to Water
    HPPlantAirInletNode,     !- Evaporator Air Inlet Node Name
    HPPlantAirOutletNode,    !- Evaporator Air Outlet Node Name
    HPPlantWaterInletNode,   !- Condenser Water Inlet Node Name
    HPPlantWaterOutletNode,  !- Condenser Water Outlet Node Name
    0,                       !- Crankcase Heater Capacity {W}
    10,                      !- Maximum Ambient Temperature for Crankcase Heater Operation {C}
    WetBulbTemperature,      !- Evaporator Air Temperature Type for Curve Objects
    HPWH-Htg-Cap-fT,         !- Heating Capacity Function of Temperature Curve Name
    ,                        !- Heating Capacity Function of Air Flow Fraction Curve Name
    ,                        !- Heating Capacity Function of Water Flow Fraction Curve Name
    HPWH-Htg-COP-fT,     !- Heating COP Function of Temperature Curve Name
    ,                        !- Heating COP Function of Air Flow Fraction Curve Name
    ,                        !- Heating COP Function of Water Flow Fraction Curve Name
    HPWH-COP-fPLR;           !- Part Load Fraction Correlation Curve Name


!-   ===========  ALL OBJECTS IN CLASS: BRANCH ===========

Branch,
    Water Heater Use Inlet Branch,  !- Name
    ,                        !- Pressure Drop Curve Name
    Pump:VariableSpeed,      !- Component 1 Object Type
    DHW Pump,                !- Component 1 Name
    Water Heater Use Loop Inlet Node,  !- Component 1 Inlet Node Name
    DHW Pump Outlet Node;    !- Component 1 Outlet Node Name

Branch,
    Water Heater Use Branch, !- Name
    ,                        !- Pressure Drop Curve Name
    WaterHeater:HeatPump:PumpedCondenser,  !- Component 1 Object Type
    PlantHeatPumpWaterHeater,!- Component 1 Name
    Water Heater Use Inlet Node,  !- Component 1 Inlet Node Name
    Water Heater Use Outlet Node;  !- Component 1 Outlet Node Name

Branch,
    Water Heater Use Outlet Branch,  !- Name
    ,                        !- Pressure Drop Curve Name
    Pipe:Adiabatic,          !- Component 1 Object Type
    Water Heater Use Outlet Pipe,  !- Component 1 Name
    Water Heater Use Outlet Pipe Inlet Node,  !- Component 1 Inlet Node Name
    Water Heater Use Loop Outlet Node;  !- Component 1 Outlet Node Name

Branch,
    Demand Inlet Branch,     !- Name
    ,                        !- Pressure Drop Curve Name
    Pipe:Adiabatic,          !- Component 1 Object Type
    Demand Inlet Pipe,       !- Component 1 Name
    Demand Inlet Node,       !- Component 1 Inlet Node Name
    Demand Pipe-DHW Node;    !- Component 1 Outlet Node Name

Branch,
    Domestic Hot Water Branch,  !- Name
    ,                        !- Pressure Drop Curve Name
    WaterUse:Connections,    !- Component 1 Object Type
    Domestic Hot Water,      !- Component 1 Name
    Domestic Hot Water Inlet Node,  !- Component 1 Inlet Node Name
    Domestic Hot Water Outlet Node;  !- Component 1 Outlet Node Name

Branch,
    Demand Outlet Branch,    !- Name
    ,                        !- Pressure Drop Curve Name
    Pipe:Adiabatic,          !- Component 1 Object Type
    Demand Outlet Pipe,      !- Component 1 Name
    Demand DHW-Pipe Node,    !- Component 1 Inlet Node Name
    Demand Outlet Node;      !- Component 1 Outlet Node Name


!-   ===========  ALL OBJECTS IN CLASS: BRANCHLIST ===========

!***PLANT DHW LOOP: WATER HEATER SIDE***
BranchList,
    Water Heater Use Branches,  !- Name
    Water Heater Use Inlet Branch,  !- Branch 1 Name
    Water Heater Use Branch, !- Branch 2 Name
    Water Heater Use Outlet Branch;  !- Branch 3 Name

!***PLANT DHW LOOP: DOMESTIC HOT WATER SIDE***
BranchList,
    Demand Branches,         !- Name
    Demand Inlet Branch,     !- Branch 1 Name
    Domestic Hot Water Branch,  !- Branch 2 Name
    Demand Outlet Branch;    !- Branch 3 Name


!-   ===========  ALL OBJECTS IN CLASS: CONNECTOR:SPLITTER ===========

Connector:Splitter,
    Water Heater Use Splitter,  !- Name
    Water Heater Use Inlet Branch,  !- Inlet Branch Name
    Water Heater Use Branch; !- Outlet Branch 1 Name

Connector:Splitter,
    Demand Splitter,         !- Name
    Demand Inlet Branch,     !- Inlet Branch Name
    Domestic Hot Water Branch;  !- Outlet Branch 1 Name


!-   ===========  ALL OBJECTS IN CLASS: CONNECTOR:MIXER ===========

Connector:Mixer,
    Water Heater Use Mixer,  !- Name
    Water Heater Use Outlet Branch,  !- Outlet Branch Name
    Water Heater Use Branch; !- Inlet Branch 1 Name

Connector:Mixer,
    Demand Mixer,            !- Name
    Demand Outlet Branch,    !- Outlet Branch Name
    Domestic Hot Water Branch;  !- Inlet Branch 1 Name


!-   ===========  ALL OBJECTS IN CLASS: CONNECTORLIST ===========

ConnectorList,
    Water Heater Use Connectors,  !- Name
    Connector:Splitter,      !- Connector 1 Object Type
    Water Heater Use Splitter,  !- Connector 1 Name
    Connector:Mixer,         !- Connector 2 Object Type
    Water Heater Use Mixer;  !- Connector 2 Name

ConnectorList,
    Demand Connectors,       !- Name
    Connector:Splitter,      !- Connector 1 Object Type
    Demand Splitter,         !- Connector 1 Name
    Connector:Mixer,         !- Connector 2 Object Type
    Demand Mixer;            !- Connector 2 Name


!-   ===========  ALL OBJECTS IN CLASS: OUTDOORAIR:NODE ===========

OutdoorAir:Node,
    HPPlantAirInletNode;     !- Name


!-   ===========  ALL OBJECTS IN CLASS: PIPE:ADIABATIC ===========

Pipe:Adiabatic,
    Water Heater Use Outlet Pipe,  !- Name
    Water Heater Use Outlet Pipe Inlet Node,  !- Inlet Node Name
    Water Heater Use Loop Outlet Node;  !- Outlet Node Name

Pipe:Adiabatic,
    Demand Inlet Pipe,       !- Name
    Demand Inlet Node,       !- Inlet Node Name
    Demand Pipe-DHW Node;    !- Outlet Node Name

Pipe:Adiabatic,
    Demand Outlet Pipe,      !- Name
    Demand DHW-Pipe Node,    !- Inlet Node Name
    Demand Outlet Node;      !- Outlet Node Name


!-   ===========  ALL OBJECTS IN CLASS: PUMP:VARIABLESPEED ===========

! No pumping energy; water mains pressure only
Pump:VariableSpeed,
    DHW Pump,                !- Name
    Water Heater Use Loop Inlet Node,  !- Inlet Node Name
    DHW Pump Outlet Node,    !- Outlet Node Name
    AUTOSIZE,                !- Design Maximum Flow Rate {m3/s}
    179352,                  !- Design Pump Head {Pa}
    AUTOSIZE,                !- Design Power Consumption {W}
    0.9,                     !- Motor Efficiency
    0.0,                     !- Fraction of Motor Inefficiencies to Fluid Stream
    0,                       !- Coefficient 1 of the Part Load Performance Curve
    1,                       !- Coefficient 2 of the Part Load Performance Curve
    0,                       !- Coefficient 3 of the Part Load Performance Curve
    0,                       !- Coefficient 4 of the Part Load Performance Curve
    0,                       !- Design Minimum Flow Rate {m3/s}
    INTERMITTENT;            !- Pump Control Type


!-   ===========  ALL OBJECTS IN CLASS: WATERHEATER:STRATIFIED ===========

WaterHeater:Stratified,
    Water Heater Tank,       !- Name
    Water Heater,            !- End-Use Subcategory
    0.287691,                !- Tank Volume {m3}
    1.594,                   !- Tank Height {m}
    VerticalCylinder,        !- Tank Shape
    ,                        !- Tank Perimeter {m}
    100,                     !- Maximum Temperature Limit {C}
    MasterSlave,             !- Heater Priority Control
    Hot Water Set Point Temp Schedule,  !- Heater 1 Setpoint Temperature Schedule Name
    18.5,                    !- Heater 1 Deadband Temperature Difference {deltaC}
    4500,                    !- Heater 1 Capacity {W}
    1.129,                   !- Heater 1 Height {m}
    Hot Water Set Point Temp Schedule,  !- Heater 2 Setpoint Temperature Schedule Name
    18.5,                    !- Heater 2 Deadband Temperature Difference {deltaC}
    0,                       !- Heater 2 Capacity {W}
    0.266,                   !- Heater 2 Height {m}
    Electricity,             !- Heater Fuel Type
    1,                       !- Heater Thermal Efficiency
    8.3,                     !- Off Cycle Parasitic Fuel Consumption Rate {W}
    Electricity,             !- Off Cycle Parasitic Fuel Type
    0,                       !- Off Cycle Parasitic Heat Fraction to Tank
    1,                       !- Off Cycle Parasitic Height {m}
    8.3,                     !- On Cycle Parasitic Fuel Consumption Rate {W}
    Electricity,             !- On Cycle Parasitic Fuel Type
    0,                       !- On Cycle Parasitic Heat Fraction to Tank
    1,                       !- On Cycle Parasitic Height {m}
    Schedule,                !- Ambient Temperature Indicator
    Ambient Temp Schedule,   !- Ambient Temperature Schedule Name
    ,                        !- Ambient Temperature Zone Name
    ,                        !- Ambient Temperature Outdoor Air Node Name
    0.7878,                  !- Uniform Skin Loss Coefficient per Unit Area to Ambient Temperature {W/m2-K}
    1,                       !- Skin Loss Fraction to Zone
    ,                        !- Off Cycle Flue Loss Coefficient to Ambient Temperature {W/K}
    1,                       !- Off Cycle Flue Loss Fraction to Zone
    ,                        !- Peak Use Flow Rate {m3/s}
    ,                        !- Use Flow Rate Fraction Schedule Name
    ,                        !- Cold Water Supply Temperature Schedule Name
    Water Heater Use Inlet Node,  !- Use Side Inlet Node Name
    Water Heater Use Outlet Node,  !- Use Side Outlet Node Name
    1,                       !- Use Side Effectiveness
    0,                       !- Use Side Inlet Height {m}
    autocalculate,           !- Use Side Outlet Height {m}
    HPPlantWaterOutletNode,  !- Source Side Inlet Node Name
    HPPlantWaterInletNode,   !- Source Side Outlet Node Name
    ,                        !- Source Side Effectiveness
    ,                        !- Source Side Inlet Height {m}
    ,                        !- Source Side Outlet Height {m}
    Fixed,                   !- Inlet Mode
    autosize,                !- Use Side Design Flow Rate {m3/s}
    0.00033,                 !- Source Side Design Flow Rate {m3/s}
    1.5,                     !- Indirect Water Heating Recovery Time {hr}
    12;                      !- Number of Nodes


!-   ===========  ALL OBJECTS IN CLASS: WATERHEATER:HEATPUMP:PUMPEDCONDENSER ===========

WaterHeater:HeatPump:PumpedCondenser,
    PlantHeatPumpWaterHeater,!- Name
    PlantHPWHSch,            !- Availability Schedule Name
    PlantHPWHTempSch,        !- Compressor Setpoint Temperature Schedule Name
    3.89,                    !- Dead Band Temperature Difference {deltaC}
    HPPlantWaterInletNode,   !- Condenser Water Inlet Node Name
    HPPlantWaterOutletNode,  !- Condenser Water Outlet Node Name
    0.00033,                 !- Condenser Water Flow Rate {m3/s}
    0.2279,                  !- Evaporator Air Flow Rate {m3/s}
    OutdoorAirOnly,          !- Inlet Air Configuration
    ,                        !- Air Inlet Node Name
    ,                        !- Air Outlet Node Name
    HPPlantAirInletNode,     !- Outdoor Air Node Name
    HPPlantFanAirOutletNode, !- Exhaust Air Node Name
    ,                        !- Inlet Air Temperature Schedule Name
    ,                        !- Inlet Air Humidity Schedule Name
    ,                        !- Inlet Air Zone Name
    WaterHeater:Stratified,  !- Tank Object Type
    Water Heater Tank,       !- Tank Name
    Water Heater Use Inlet Node,  !- Tank Use Side Inlet Node Name
    Water Heater Use Outlet Node,  !- Tank Use Side Outlet Node Name
    Coil:WaterHeating:AirToWaterHeatPump:Pumped,  !- DX Coil Object Type
    HPWHPlantDXCoil,         !- DX Coil Name
    7.2,                     !- Minimum Inlet Air Temperature for Compressor Operation {C}
    48.89,                   !- Maximum Inlet Air Temperature for Compressor Operation {C}
    Outdoors,                !- Compressor Location
    ,                        !- Compressor Ambient Temperature Schedule Name
    Fan:SystemModel,         !- Fan Object Type
    HPWHPlantFan,            !- Fan Name
    DrawThrough,             !- Fan Placement
    0,                       !- On Cycle Parasitic Electric Load {W}
    0,                       !- Off Cycle Parasitic Electric Load {W}
    ,                        !- Parasitic Heat Rejection Location
    ,                        !- Inlet Air Mixer Node Name
    ,                        !- Outlet Air Splitter Node Name
    ,                        !- Inlet Air Mixer Schedule Name
    MutuallyExclusive,       !- Tank Element Control Logic
    1.262,                   !- Control Sensor 1 Height In Stratified Tank {m}
    0.75,                    !- Control Sensor 1 Weight {dimensionless}
    0.464;                   !- Control Sensor 2 Height In Stratified Tank {m}


!-   ===========  ALL OBJECTS IN CLASS: PLANTLOOP ===========

PlantLoop,
    DHW Loop,                !- Name
    WATER,                   !- Fluid Type
    ,                        !- User Defined Fluid Type
    DHW Loop Operation,      !- Plant Equipment Operation Scheme Name
    Water Heater Use Loop Outlet Node,  !- Loop Temperature Setpoint Node Name
    100,                     !- Maximum Loop Temperature {C}
    3,                       !- Minimum Loop Temperature {C}
    AUTOSIZE,                !- Maximum Loop Flow Rate {m3/s}
    0,                       !- Minimum Loop Flow Rate {m3/s}
    AUTOSIZE,                !- Plant Loop Volume {m3}
    Water Heater Use Loop Inlet Node,  !- Plant Side Inlet Node Name
    Water Heater Use Loop Outlet Node,  !- Plant Side Outlet Node Name
    Water Heater Use Branches,  !- Plant Side Branch List Name
    Water Heater Use Connectors,  !- Plant Side Connector List Name
    Demand Inlet Node,       !- Demand Side Inlet Node Name