Version,9.5;
SimulationControl,YES,YES,YES,YES,NO,YES,2.0;
Building,Ref Bldg Large Office New2004_v1.3_5.0,0.0,City,0.04,0.2,FullInteriorAndExterior,25.0,6.0;
RunPeriod,Run Period 1,1.0,1.0,,12.0,31.0,,Sunday,No,No,No,Yes,Yes;
RunPeriodControl:DaylightSavingTime,2nd Sunday in March,1st Sunday in November;
RunPeriodControl:SpecialDays,New Years Day,January 1,1.0,Holiday;
RunPeriodControl:SpecialDays,Veterans Day,November 11,1.0,Holiday;
RunPeriodControl:SpecialDays,Christmas,December 25,1.0,Holiday;
RunPeriodControl:SpecialDays,Independence Day,July 4,1.0,Holiday;
RunPeriodControl:SpecialDays,MLK Day,3rd Monday in January,1.0,Holiday;
RunPeriodControl:SpecialDays,Presidents Day,3rd Monday in February,1.0,Holiday;
RunPeriodControl:SpecialDays,Memorial Day,Last Monday in May,1.0,Holiday;
RunPeriodControl:SpecialDays,Labor Day,1st Monday in September,1.0,Holiday;
RunPeriodControl:SpecialDays,Columbus Day,2nd Monday in October,1.0,Holiday;
RunPeriodControl:SpecialDays,Thanksgiving,4th Thursday in November,1.0,Holiday;
ScheduleTypeLimits,Any Number;
ScheduleTypeLimits,Fraction,0.0,1.0,CONTINUOUS;
ScheduleTypeLimits,Temperature,-60.0,200.0,CONTINUOUS;
ScheduleTypeLimits,On/Off,0.0,1.0,DISCRETE;
ScheduleTypeLimits,Control Type,0.0,4.0,DISCRETE;
ScheduleTypeLimits,Humidity,10.0,90.0,CONTINUOUS;
ScheduleTypeLimits,Number;
Schedule:Compact,ALWAYS_ON,On/Off,Through: 12/31,For: AllDays,Until: 24:00,1.0;
SurfaceConvectionAlgorithm:Inside,TARP;
SurfaceConvectionAlgorithm:Outside,DOE-2;
HeatBalanceAlgorithm,ConductionTransferFunction,200.0;
ZoneAirHeatBalanceAlgorithm,AnalyticalSolution;
Sizing:Parameters,1.33,1.33,6.0;
ConvergenceLimits,2.0,25.0;
ShadowCalculation,PolygonClipping,Periodic,7.0,15000.0;
Timestep,6.0;
Site:Location,USA IL-CHICAGO-OHARE,41.77,-87.75,-6.0,190.0;
SizingPeriod:DesignDay,CHICAGO Ann Htg 99.6% Condns DB,1.0,21.0,WinterDesignDay,-20.6,0.0,,,Wetbulb,
-20.6,,,,,99063.0,4.9,270.0,No,No,No,ASHRAEClearSky,,,,,0.0;
SizingPeriod:DesignDay,CHICAGO Ann Clg .4% Condns WB=>MDB,7.0,21.0,SummerDesignDay,31.2,10.7,,,
Wetbulb,25.5,,,,,99063.0,5.3,230.0,No,No,No,ASHRAEClearSky,,,,,1.0;
Site:WaterMainsTemperature,CORRELATION,,9.69,28.1;
Site:GroundTemperature:BuildingSurface,19.527,19.502,19.536,19.598,20.002,21.64,22.225,22.375,
21.449,20.121,19.802,19.633;
Construction,Mass Non-res Ext Wall,1IN Stucco,8IN Concrete HW,Mass NonRes Wall Insulation,
1/2IN Gypsum;
Material,Mass NonRes Wall Insulation,MediumRough,0.0495495,0.049,265.0,836.8,0.9,0.7,0.7;
Construction,IEAD Non-res Roof,Roof Membrane,IEAD NonRes Roof Insulation,Metal Decking;
Material,IEAD NonRes Roof Insulation,MediumRough,0.127339,0.049,265.0,836.8,0.9,0.7,0.7;
Construction,ext-slab,HW CONCRETE,CP02 CARPET PAD;
Construction,int-walls,1/2IN Gypsum,1/2IN Gypsum;
Construction,INT-FLOOR-TOPSIDE,MAT-CC05 4 HW CONCRETE,CP02 CARPET PAD;
Construction,INT-FLOOR-UNDERSIDE,CP02 CARPET PAD,MAT-CC05 4 HW CONCRETE;
Construction,Underground Wall Non-res,8IN Concrete HW,UGWall NonRes Insulation;
Material,UGWall NonRes Insulation,MediumRough,0.0001,0.049,265.0,836.8,0.9,0.7,0.7;
Construction,Window Non-res Fixed,NonRes Fixed Assembly Window;
WindowMaterial:SimpleGlazingSystem,NonRes Fixed Assembly Window,3.23646,0.39;
Construction,DropCeiling,Std AC02;
Construction,InteriorFurnishings,Std Wood 6inch;
Material,Std Wood 6inch,MediumSmooth,0.15,0.12,540.0,1210.0,0.9,0.7,0.7;
Material,Wood Siding,MediumSmooth,0.01,0.11,544.62,1210.0,0.9,0.78,0.78;
Material,1/2IN Gypsum,Smooth,0.0127,0.16,784.9,830.0,0.9,0.92,0.92;
Material,1IN Stucco,Smooth,0.0253,0.6918,1858.0,837.0,0.9,0.92,0.92;
Material,8IN CONCRETE HW,Rough,0.2032,1.311,2240.0,836.8,0.9,0.7,0.7;
Material,Metal Siding,Smooth,0.0015,44.96,7688.86,410.0,0.9,0.2,0.2;
Material,HW CONCRETE,Rough,0.1016,1.311,2240.0,836.8,0.9,0.7,0.7;
Material:NoMass,CP02 CARPET PAD,VeryRough,0.2165,0.9,0.7,0.8;
Material,Roof Membrane,VeryRough,0.0095,0.16,1121.29,1460.0,0.9,0.7,0.7;
Material,Metal Decking,MediumSmooth,0.0015,45.006,7680.0,418.4,0.9,0.7,0.3;
Material,Metal Roofing,MediumSmooth,0.0015,45.006,7680.0,418.4,0.9,0.7,0.3;
Material,MAT-CC05 4 HW CONCRETE,Rough,0.1016,1.311,2240.0,836.8,0.9,0.7,0.7;
Material,Std AC02,MediumSmooth,0.0127,0.057,288.0,1339.0,0.9,0.7,0.2;
Material:NoMass,MAT-AIR-WALL,Rough,0.207949,0.9,0.7;
Zone,Basement,0.0,0.0,0.04,0.0,1.0,1.0,,,autocalculate,,,Yes;
Zone,Core_bottom,0.0,0.0,0.0,0.0,1.0,1.0,,,autocalculate,,,Yes;
Zone,Core_mid,0.0,0.0,0.0,0.0,1.0,10.0,,,autocalculate,,,Yes;
Zone,Core_top,0.0,0.0,0.0,0.0,1.0,1.0,,,autocalculate,,,Yes;
Zone,GroundFloor_Plenum,0.0,0.0,0.0,0.0,1.0,1.0,,,autocalculate,,,No;
Zone,MidFloor_Plenum,0.0,0.0,0.0,0.0,1.0,10.0,,,autocalculate,,,No;
Zone,Perimeter_bot_ZN_1,0.0,0.0,0.0,0.0,1.0,1.0,,,autocalculate,,,Yes;
Zone,Perimeter_bot_ZN_2,0.0,0.0,0.0,0.0,1.0,1.0,,,autocalculate,,,Yes;
Zone,Perimeter_bot_ZN_3,0.0,0.0,0.0,0.0,1.0,1.0,,,autocalculate,,,Yes;
Zone,Perimeter_bot_ZN_4,0.0,0.0,0.0,0.0,1.0,1.0,,,autocalculate,,,Yes;
Zone,Perimeter_mid_ZN_1,0.0,0.0,0.0,0.0,1.0,10.0,,,autocalculate,,,Yes;
Zone,Perimeter_mid_ZN_2,0.0,0.0,0.0,0.0,1.0,10.0,,,autocalculate,,,Yes;
Zone,Perimeter_mid_ZN_3,0.0,0.0,0.0,0.0,1.0,10.0,,,autocalculate,,,Yes;
Zone,Perimeter_mid_ZN_4,0.0,0.0,0.0,0.0,1.0,10.0,,,autocalculate,,,Yes;
Zone,Perimeter_top_ZN_1,0.0,0.0,0.0,0.0,1.0,1.0,,,autocalculate,,,Yes;
Zone,Perimeter_top_ZN_2,0.0,0.0,0.0,0.0,1.0,1.0,,,autocalculate,,,Yes;
Zone,Perimeter_top_ZN_3,0.0,0.0,0.0,0.0,1.0,1.0,,,autocalculate,,,Yes;
Zone,Perimeter_top_ZN_4,0.0,0.0,0.0,0.0,1.0,1.0,,,autocalculate,,,Yes;
Zone,TopFloor_Plenum,0.0,0.0,0.0,0.0,1.0,1.0,,,autocalculate,,,No;
BuildingSurface:Detailed,Basement_Ceiling_1,Ceiling,INT-FLOOR-UNDERSIDE,Basement,Surface,
Perimeter_bot_ZN_1_Floor,NoSun,NoWind,AutoCalculate,4.0,4.5732,4.5732,0.0,0.0,0.0,0.0,73.1072,0.0,
0.0,68.534,4.5732,0.0;
BuildingSurface:Detailed,Basement_Ceiling_2,Ceiling,INT-FLOOR-UNDERSIDE,Basement,Surface,
Perimeter_bot_ZN_2_Floor,NoSun,NoWind,AutoCalculate,4.0,68.534,4.5732,0.0,73.1072,0.0,0.0,73.1072,
48.7381,0.0,68.534,44.165,0.0;
BuildingSurface:Detailed,Basement_Ceiling_3,Ceiling,INT-FLOOR-UNDERSIDE,Basement,Surface,
Perimeter_bot_ZN_3_Floor,NoSun,NoWind,AutoCalculate,4.0,68.534,44.165,0.0,73.1072,48.7381,0.0,0.0,
48.7381,0.0,4.5732,44.165,0.0;
BuildingSurface:Detailed,Basement_Ceiling_4,Ceiling,INT-FLOOR-UNDERSIDE,Basement,Surface,
Perimeter_bot_ZN_4_Floor,NoSun,NoWind,AutoCalculate,4.0,4.5732,44.165,0.0,0.0,48.7381,0.0,0.0,0.0,
0.0,4.5732,4.5732,0.0;
BuildingSurface:Detailed,Basement_Ceiling_5,Ceiling,INT-FLOOR-UNDERSIDE,Basement,Surface,
Core_bot_ZN_5_Floor,NoSun,NoWind,AutoCalculate,4.0,4.5732,44.165,0.0,4.5732,4.5732,0.0,68.534,
4.5732,0.0,68.534,44.165,0.0;
BuildingSurface:Detailed,Basement_Floor,Floor,ext-slab,Basement,Ground,,NoSun,NoWind,AutoCalculate,
4.0,73.1072,48.7381,-2.439,73.1072,0.0,-2.439,0.0,0.0,-2.439,0.0,48.7381,-2.439;
BuildingSurface:Detailed,Basement_Wall_East,Wall,Underground Wall Non-res,Basement,Ground,,NoSun,
NoWind,AutoCalculate,4.0,73.1072,0.0,0.0,73.1072,0.0,-2.439,73.1072,48.7381,-2.439,73.1072,48.7381,
0.0;
BuildingSurface:Detailed,Basement_Wall_North,Wall,Underground Wall Non-res,Basement,Ground,,NoSun,
NoWind,AutoCalculate,4.0,73.1072,48.7381,0.0,73.1072,48.7381,-2.439,0.0,48.7381,-2.439,0.0,48.7381,
0.0;
BuildingSurface:Detailed,Basement_Wall_South,Wall,Underground Wall Non-res,Basement,Ground,,NoSun,
NoWind,AutoCalculate,4.0,0.0,0.0,0.0,0.0,0.0,-2.439,73.1072,0.0,-2.439,73.1072,0.0,0.0;
BuildingSurface:Detailed,Basement_Wall_West,Wall,Underground Wall Non-res,Basement,Ground,,NoSun,
NoWind,AutoCalculate,4.0,0.0,48.7381,0.0,0.0,48.7381,-2.439,0.0,0.0,-2.439,0.0,0.0,0.0;
BuildingSurface:Detailed,Building_Roof,Roof,IEAD Non-res Roof,TopFloor_Plenum,Outdoors,,SunExposed,
WindExposed,AutoCalculate,4.0,73.1072,0.0,47.5584,73.1072,48.7381,47.5584,0.0,48.7381,47.5584,0.0,
0.0,47.5584;
BuildingSurface:Detailed,Core_bot_ZN_5_Ceiling,Ceiling,DropCeiling,Core_bottom,Surface,
GroundFloor_Plenum_Floor_5,NoSun,NoWind,AutoCalculate,4.0,4.5732,44.165,2.744,4.5732,4.5732,2.744,
68.534,4.5732,2.744,68.534,44.165,2.744;
BuildingSurface:Detailed,Core_bot_ZN_5_Floor,Floor,INT-FLOOR-TOPSIDE,Core_bottom,Surface,
Basement_Ceiling_5,NoSun,NoWind,AutoCalculate,4.0,68.534,44.165,0.0,68.534,4.5732,0.0,4.5732,4.5732,
0.0,4.5732,44.165,0.0;
BuildingSurface:Detailed,Core_bot_ZN_5_Wall_East,Wall,int-walls,Core_bottom,Surface,
Perimeter_bot_ZN_2_Wall_West,NoSun,NoWind,AutoCalculate,4.0,68.534,4.5732,2.744,68.534,4.5732,0.0,
68.534,44.165,0.0,68.534,44.165,2.744;
BuildingSurface:Detailed,Core_bot_ZN_5_Wall_North,Wall,int-walls,Core_bottom,Surface,
Perimeter_bot_ZN_3_Wall_South,NoSun,NoWind,AutoCalculate,4.0,68.534,44.165,2.744,68.534,44.165,0.0,
4.5732,44.165,0.0,4.5732,44.165,2.744;
BuildingSurface:Detailed,Core_bot_ZN_5_Wall_South,Wall,int-walls,Core_bottom,Surface,
Perimeter_bot_ZN_1_Wall_North,NoSun,NoWind,AutoCalculate,4.0,4.5732,4.5732,2.744,4.5732,4.5732,0.0,
68.534,4.5732,0.0,68.534,4.5732,2.744;
BuildingSurface:Detailed,Core_bot_ZN_5_Wall_West,Wall,int-walls,Core_bottom,Surface,
Perimeter_bot_ZN_4_Wall_East,NoSun,NoWind,AutoCalculate,4.0,4.5732,44.165,2.744,4.5732,44.165,0.0,
4.5732,4.5732,0.0,4.5732,4.5732,2.744;
BuildingSurface:Detailed,Core_mid_ZN_5_Ceiling,Ceiling,DropCeiling,Core_mid,Surface,
MidFloor_Plenum_Floor_5,NoSun,NoWind,AutoCalculate,4.0,4.5732,44.165,22.56,4.5732,4.5732,22.56,
68.534,4.5732,22.56,68.534,44.165,22.56;
BuildingSurface:Detailed,Core_mid_ZN_5_Floor,Floor,INT-FLOOR-TOPSIDE,Core_mid,Surface,
Core_mid_ZN_5_Floor,NoSun,NoWind,AutoCalculate,4.0,68.534,44.165,19.816,68.534,4.5732,19.816,4.5732,
4.5732,19.816,4.5732,44.165,19.816;
BuildingSurface:Detailed,Core_mid_ZN_5_Wall_East,Wall,int-walls,Core_mid,Surface,
Perimeter_mid_ZN_2_Wall_West,NoSun,NoWind,AutoCalculate,4.0,68.534,4.5732,22.56,68.534,4.5732,
19.816,68.534,44.165,19.816,68.534,44.165,22.56;
BuildingSurface:Detailed,Core_mid_ZN_5_Wall_North,Wall,int-walls,Core_mid,Surface,
Perimeter_mid_ZN_3_Wall_South,NoSun,NoWind,AutoCalculate,4.0,68.534,44.165,22.56,68.534,44.165,
19.816,4.5732,44.165,19.816,4.5732,44.165,22.56;
BuildingSurface:Detailed,Core_mid_ZN_5_Wall_South,Wall,int-walls,Core_mid,Surface,
Perimeter_mid_ZN_1_Wall_North,NoSun,NoWind,AutoCalculate,4.0,4.5732,4.5732,22.56,4.5732,4.5732,
19.816,68.534,4.5732,19.816,68.534,4.5732,22.56;
BuildingSurface:Detailed,Core_mid_ZN_5_Wall_West,Wall,int-walls,Core_mid,Surface,
Perimeter_mid_ZN_4_Wall_East,NoSun,NoWind,AutoCalculate,4.0,4.5732,44.165,22.56,4.5732,44.165,
19.816,4.5732,4.5732,19.816,4.5732,4.5732,22.56;
BuildingSurface:Detailed,Core_top_ZN_5_Ceiling,Ceiling,DropCeiling,Core_top,Surface,
TopFloor_Plenum_Floor_5,NoSun,NoWind,AutoCalculate,4.0,4.5732,44.165,46.3392,4.5732,4.5732,46.3392,
68.534,4.5732,46.3392,68.534,44.165,46.3392;
BuildingSurface:Detailed,Core_top_ZN_5_Floor,Floor,INT-FLOOR-TOPSIDE,Core_top,Surface,
Core_top_ZN_5_Floor,NoSun,NoWind,AutoCalculate,4.0,68.534,44.165,43.5952,68.534,4.5732,43.5952,
4.5732,4.5732,43.5952,4.5732,44.165,43.5952;
BuildingSurface:Detailed,Core_top_ZN_5_Wall_East,Wall,int-walls,Core_top,Surface,
Perimeter_top_ZN_2_Wall_West,NoSun,NoWind,AutoCalculate,4.0,68.534,4.5732,46.3392,68.534,4.5732,
43.5952,68.534,44.165,43.5952,68.534,44.165,46.3392;
BuildingSurface:Detailed,Core_top_ZN_5_Wall_North,Wall,int-walls,Core_top,Surface,
Perimeter_top_ZN_3_Wall_South,NoSun,NoWind,AutoCalculate,4.0,68.534,44.165,46.3392,68.534,44.165,
43.5952,4.5732,44.165,43.5952,4.5732,44.165,46.3392;
BuildingSurface:Detailed,Core_top_ZN_5_Wall_South,Wall,int-walls,Core_top,Surface,
Perimeter_top_ZN_1_Wall_North,NoSun,NoWind,AutoCalculate,4.0,4.5732,4.5732,46.3392,4.5732,4.5732,
43.5952,68.534,4.5732,43.5952,68.534,4.5732,46.3392;
BuildingSurface:Detailed,Core_top_ZN_5_Wall_West,Wall,int-walls,Core_top,Surface,
Perimeter_top_ZN_4_Wall_East,NoSun,NoWind,AutoCalculate,4.0,4.5732,44.165,46.3392,4.5732,44.165,
43.5952,4.5732,4.5732,43.5952,4.5732,4.5732,46.3392;
BuildingSurface:Detailed,GroundFloor_Plenum_Ceiling,Ceiling,INT-FLOOR-UNDERSIDE,GroundFloor_Plenum,
Surface,GroundFloor_Plenum_Ceiling,NoSun,NoWind,AutoCalculate,4.0,73.1072,0.0,3.9632,73.1072,
48.7381,3.9632,0.0,48.7381,3.9632,0.0,0.0,3.9632;
BuildingSurface:Detailed,GroundFloor_Plenum_Floor_1,Floor,DropCeiling,GroundFloor_Plenum,Surface,
Perimeter_bot_ZN_1_Ceiling,NoSun,NoWind,AutoCalculate,4.0,4.5732,4.5732,2.744,68.534,4.5732,2.744,
73.1072,0.0,2.744,0.0,0.0,2.744;
BuildingSurface:Detailed,GroundFloor_Plenum_Floor_2,Floor,DropCeiling,GroundFloor_Plenum,Surface,
Perimeter_bot_ZN_2_Ceiling,NoSun,NoWind,AutoCalculate,4.0,73.1072,48.7381,2.744,73.1072,0.0,2.744,
68.534,4.5732,2.744,68.534,44.165,2.744;
BuildingSurface:Detailed,GroundFloor_Plenum_Floor_3,Floor,DropCeiling,GroundFloor_Plenum,Surface,
Perimeter_bot_ZN_3_Ceiling,NoSun,NoWind,AutoCalculate,4.0,68.534,44.165,2.744,4.5732,44.165,2.744,
0.0,48.7381,2.744,73.1072,48.7381,2.744;
BuildingSurface:Detailed,GroundFloor_Plenum_Floor_4,Floor,DropCeiling,GroundFloor_Plenum,Surface,
Perimeter_bot_ZN_4_Ceiling,NoSun,NoWind,AutoCalculate,4.0,4.5732,44.165,2.744,4.5732,4.5732,2.744,
0.0,0.0,2.744,0.0,48.7381,2.744;
BuildingSurface:Detailed,GroundFloor_Plenum_Floor_5,Floor,DropCeiling,GroundFloor_Plenum,Surface,
Core_bot_ZN_5_Ceiling,NoSun,NoWind,AutoCalculate,4.0,68.534,4.5732,2.744,4.5732,4.5732,2.744,4.5732,
44.165,2.744,68.534,44.165,2.744;
BuildingSurface:Detailed,GroundFloor_Plenum_Wall_East,Wall,Mass Non-res Ext Wall,GroundFloor_Plenum,
Outdoors,,SunExposed,WindExposed,AutoCalculate,4.0,73.1072,0.0,3.9632,73.1072,0.0,2.744,73.1072,
48.7381,2.744,73.1072,48.7381,3.9632;
BuildingSurface:Detailed,GroundFloor_Plenum_Wall_North,Wall,Mass Non-res Ext Wall,
GroundFloor_Plenum,Outdoors,,SunExposed,WindExposed,AutoCalculate,4.0,73.1072,48.7381,3.9632,
73.1072,48.7381,2.744,0.0,48.7381,2.744,0.0,48.7381,3.9632;
BuildingSurface:Detailed,GroundFloor_Plenum_Wall_South,Wall,Mass Non-res Ext Wall,
GroundFloor_Plenum,Outdoors,,SunExposed,WindExposed,AutoCalculate,4.0,0.0,0.0,3.9632,0.0,0.0,2.744,
73.1072,0.0,2.744,73.1072,0.0,3.9632;
BuildingSurface:Detailed,GroundFloor_Plenum_West,Wall,Mass Non-res Ext Wall,GroundFloor_Plenum,
Outdoors,,SunExposed,WindExposed,AutoCalculate,4.0,0.0,48.7381,3.9632,0.0,48.7381,2.744,0.0,0.0,
2.744,0.0,0.0,3.9632;
BuildingSurface:Detailed,MidFloor_Plenum_Ceiling,Ceiling,INT-FLOOR-UNDERSIDE,MidFloor_Plenum,
Surface,MidFloor_Plenum_Ceiling,NoSun,NoWind,AutoCalculate,4.0,73.1072,48.7381,23.7792,0.0,48.7381,
23.7792,0.0,0.0,23.7792,73.1072,0.0,23.7792;
BuildingSurface:Detailed,MidFloor_Plenum_Floor_1,Floor,DropCeiling,MidFloor_Plenum,Surface,
Perimeter_mid_ZN_1_Ceiling,NoSun,NoWind,AutoCalculate,4.0,73.1072,0.0,22.56,0.0,0.0,22.56,4.5732,
4.5732,22.56,68.534,4.5732,22.56;
BuildingSurface:Detailed,MidFloor_Plenum_Floor_2,Floor,DropCeiling,MidFloor_Plenum,Surface,
Perimeter_mid_ZN_2_Ceiling,NoSun,NoWind,AutoCalculate,4.0,73.1072,0.0,22.56,68.534,4.5732,22.56,
68.534,44.165,22.56,73.1072,48.7381,22.56;
BuildingSurface:Detailed,MidFloor_Plenum_Floor_3,Floor,DropCeiling,MidFloor_Plenum,Surface,
Perimeter_mid_ZN_3_Ceiling,NoSun,NoWind,AutoCalculate,4.0,0.0,48.7381,22.56,73.1072,48.7381,22.56,
68.534,44.165,22.56,4.5732,44.165,22.56;
BuildingSurface:Detailed,MidFloor_Plenum_Floor_4,Floor,DropCeiling,MidFloor_Plenum,Surface,
Perimeter_mid_ZN_4_Ceiling,NoSun,NoWind,AutoCalculate,4.0,0.0,0.0,22.56,0.0,48.7381,22.56,4.5732,
44.165,22.56,4.5732,4.5732,22.56;
BuildingSurface:Detailed,MidFloor_Plenum_Floor_5,Floor,DropCeiling,MidFloor_Plenum,Surface,
Core_mid_ZN_5_Ceiling,NoSun,NoWind,AutoCalculate,4.0,68.534,4.5732,22.56,4.5732,4.5732,22.56,4.5732,
44.165,22.56,68.534,44.165,22.56;
BuildingSurface:Detailed,MidFloor_Plenum_Wall_East,Wall,Mass Non-res Ext Wall,MidFloor_Plenum,
Outdoors,,SunExposed,WindExposed,AutoCalculate,4.0,73.1072,0.0,23.7792,73.1072,0.0,22.56,73.1072,
48.7381,22.56,73.1072,48.7381,23.7792;
BuildingSurface:Detailed,MidFloor_Plenum_Wall_North,Wall,Mass Non-res Ext Wall,MidFloor_Plenum,
Outdoors,,SunExposed,WindExposed,AutoCalculate,4.0,73.1072,48.7381,23.7792,73.1072,48.7381,22.56,
0.0,48.7381,22.56,0.0,48.7381,23.7792;
BuildingSurface:Detailed,MidFloor_Plenum_Wall_South,Wall,Mass Non-res Ext Wall,MidFloor_Plenum,
Outdoors,,SunExposed,WindExposed,AutoCalculate,4.0,0.0,0.0,23.7792,0.0,0.0,22.56,73.1072,0.0,22.56,
73.1072,0.0,23.7792;
BuildingSurface:Detailed,MidFloor_Plenum_Wall_West,Wall,Mass Non-res Ext Wall,MidFloor_Plenum,
Outdoors,,SunExposed,WindExposed,AutoCalculate,4.0,0.0,48.7381,23.7792,0.0,48.7381,22.56,0.0,0.0,
22.56,0.0,0.0,23.7792;
BuildingSurface:Detailed,Perimeter_bot_ZN_1_Ceiling,Ceiling,DropCeiling,Perimeter_bot_ZN_1,Surface,
GroundFloor_Plenum_Floor_1,NoSun,NoWind,AutoCalculate,4.0,4.5732,4.5732,2.744,0.0,0.0,2.744,73.1072,
0.0,2.744,68.534,4.5732,2.744;
BuildingSurface:Detailed,Perimeter_bot_ZN_1_Floor,Floor,INT-FLOOR-TOPSIDE,Perimeter_bot_ZN_1,
Surface,Basement_Ceiling_1,NoSun,NoWind,AutoCalculate,4.0,68.534,4.5732,0.0,73.1072,0.0,0.0,0.0,0.0,
0.0,4.5732,4.5732,0.0;
BuildingSurface:Detailed,Perimeter_bot_ZN_1_Wall_East,Wall,int-walls,Perimeter_bot_ZN_1,Surface,
Perimeter_bot_ZN_2_Wall_South,NoSun,NoWind,AutoCalculate,4.0,73.1072,0.0,2.744,73.1072,0.0,0.0,
68.534,4.5732,0.0,68.534,4.5732,2.744;
BuildingSurface:Detailed,Perimeter_bot_ZN_1_Wall_North,Wall,int-walls,Perimeter_bot_ZN_1,Surface,
Core_bot_ZN_5_Wall_South,NoSun,NoWind,AutoCalculate,4.0,68.534,4.5732,2.744,68.534,4.5732,0.0,
4.5732,4.5732,0.0,4.5732,4.5732,2.744;
BuildingSurface:Detailed,Perimeter_bot_ZN_1_Wall_South,Wall,Mass Non-res Ext Wall,
Perimeter_bot_ZN_1,Outdoors,,SunExposed,WindExposed,AutoCalculate,4.0,0.0,0.0,2.744,0.0,0.0,0.0,
73.1072,0.0,0.0,73.1072,0.0,2.744;
BuildingSurface:Detailed,Perimeter_bot_ZN_1_Wall_West,Wall,int-walls,Perimeter_bot_ZN_1,Surface,
Perimeter_bot_ZN_4_Wall_South,NoSun,NoWind,AutoCalculate,4.0,4.5732,4.5732,2.744,4.5732,4.5732,0.0,
0.0,0.0,0.0,0.0,0.0,2.744;
BuildingSurface:Detailed,Perimeter_bot_ZN_2_Ceiling,Ceiling,DropCeiling,Perimeter_bot_ZN_2,Surface,
GroundFloor_Plenum_Floor_2,NoSun,NoWind,AutoCalculate,4.0,68.534,4.5732,2.744,73.1072,0.0,2.744,
73.1072,48.7381,2.744,68.534,44.165,2.744;
BuildingSurface:Detailed,Perimeter_bot_ZN_2_Floor,Floor,INT-FLOOR-TOPSIDE,Perimeter_bot_ZN_2,
Surface,Basement_Ceiling_2,NoSun,NoWind,AutoCalculate,4.0,68.534,44.165,0.0,73.1072,48.7381,0.0,
73.1072,0.0,0.0,68.534,4.5732,0.0;
BuildingSurface:Detailed,Perimeter_bot_ZN_2_Wall_East,Wall,Mass Non-res Ext Wall,Perimeter_bot_ZN_2,
Outdoors,,SunExposed,WindExposed,AutoCalculate,4.0,73.1072,0.0,2.744,73.1072,0.0,0.0,73.1072,
48.7381,0.0,73.1072,48.7381,2.744;
BuildingSurface:Detailed,Perimeter_bot_ZN_2_Wall_North,Wall,int-walls,Perimeter_bot_ZN_2,Surface,
Perimeter_bot_ZN_3_Wall_East,NoSun,NoWind,AutoCalculate,4.0,73.1072,48.7381,2.744,73.1072,48.7381,
0.0,68.534,44.165,0.0,68.534,44.165,2.744;
BuildingSurface:Detailed,Perimeter_bot_ZN_2_Wall_South,Wall,int-walls,Perimeter_bot_ZN_2,Surface,
Perimeter_bot_ZN_1_Wall_East,NoSun,NoWind,AutoCalculate,4.0,68.534,4.5732,2.744,68.534,4.5732,0.0,
73.1072,0.0,0.0,73.1072,0.0,2.744;
BuildingSurface:Detailed,Perimeter_bot_ZN_2_Wall_West,Wall,int-walls,Perimeter_bot_ZN_2,Surface,
Core_bot_ZN_5_Wall_East,NoSun,NoWind,AutoCalculate,4.0,68.534,44.165,2.744,68.534,44.165,0.0,68.534,
4.5732,0.0,68.534,4.5732,2.744;
BuildingSurface:Detailed,Perimeter_bot_ZN_3_Ceiling,Ceiling,DropCeiling,Perimeter_bot_ZN_3,Surface,
GroundFloor_Plenum_Floor_3,NoSun,NoWind,AutoCalculate,4.0,68.534,44.165,2.744,73.1072,48.7381,2.744,
0.0,48.7381,2.744,4.5732,44.165,2.744;
BuildingSurface:Detailed,Perimeter_bot_ZN_3_Floor,Floor,INT-FLOOR-TOPSIDE,Perimeter_bot_ZN_3,
Surface,Basement_Ceiling_3,NoSun,NoWind,AutoCalculate,4.0,4.5732,44.165,0.0,0.0,48.7381,0.0,73.1072,
48.7381,0.0,68.534,44.165,0.0;
BuildingSurface:Detailed,Perimeter_bot_ZN_3_Wall_East,Wall,int-walls,Perimeter_bot_ZN_3,Surface,
Perimeter_bot_ZN_2_Wall_North,NoSun,NoWind,AutoCalculate,4.0,68.534,44.165,2.744,68.534,44.165,0.0,
73.1072,48.7381,0.0,73.1072,48.7381,2.744;
BuildingSurface:Detailed,Perimeter_bot_ZN_3_Wall_North,Wall,Mass Non-res Ext Wall,
Perimeter_bot_ZN_3,Outdoors,,SunExposed,WindExposed,AutoCalculate,4.0,73.1072,48.7381,2.744,73.1072,
48.7381,0.0,0.0,48.7381,0.0,0.0,48.7381,2.744;
BuildingSurface:Detailed,Perimeter_bot_ZN_3_Wall_South,Wall,int-walls,Perimeter_bot_ZN_3,Surface,
Core_bot_ZN_5_Wall_North,NoSun,NoWind,AutoCalculate,4.0,4.5732,44.165,2.744,4.5732,44.165,0.0,
68.534,44.165,0.0,68.534,44.165,2.744;
BuildingSurface:Detailed,Perimeter_bot_ZN_3_Wall_West,Wall,int-walls,Perimeter_bot_ZN_3,Surface,
Perimeter_bot_ZN_4_Wall_North,NoSun,NoWind,AutoCalculate,4.0,0.0,48.7381,2.744,0.0,48.7381,0.0,
4.5732,44.165,0.0,4.5732,44.165,2.744;
BuildingSurface:Detailed,Perimeter_bot_ZN_4_Ceiling,Ceiling,DropCeiling,Perimeter_bot_ZN_4,Surface,
GroundFloor_Plenum_Floor_4,NoSun,NoWind,AutoCalculate,4.0,4.5732,44.165,2.744,0.0,48.7381,2.744,0.0,
0.0,2.744,4.5732,4.5732,2.744;
BuildingSurface:Detailed,Perimeter_bot_ZN_4_Floor,Floor,INT-FLOOR-TOPSIDE,Perimeter_bot_ZN_4,
Surface,Basement_Ceiling_4,NoSun,NoWind,AutoCalculate,4.0,4.5732,4.5732,0.0,0.0,0.0,0.0,0.0,48.7381,
0.0,4.5732,44.165,0.0;
BuildingSurface:Detailed,Perimeter_bot_ZN_4_Wall_East,Wall,int-walls,Perimeter_bot_ZN_4,Surface,
Core_bot_ZN_5_Wall_West,NoSun,NoWind,AutoCalculate,4.0,4.5732,4.5732,2.744,4.5732,4.5732,0.0,4.5732,
44.165,0.0,4.5732,44.165,2.744;
BuildingSurface:Detailed,Perimeter_bot_ZN_4_Wall_North,Wall,int-walls,Perimeter_bot_ZN_4,Surface,
Perimeter_bot_ZN_3_Wall_West,NoSun,NoWind,AutoCalculate,4.0,4.5732,44.165,2.744,4.5732,44.165,0.0,
0.0,48.7381,0.0,0.0,48.7381,2.744;
BuildingSurface:Detailed,Perimeter_bot_ZN_4_Wall_South,Wall,int-walls,Perimeter_bot_ZN_4,Surface,
Perimeter_bot_ZN_1_Wall_West,NoSun,NoWind,AutoCalculate,4.0,0.0,0.0,2.744,0.0,0.0,0.0,4.5732,4.5732,
0.0,4.5732,4.5732,2.744;
BuildingSurface:Detailed,Perimeter_bot_ZN_4_Wall_West,Wall,Mass Non-res Ext Wall,Perimeter_bot_ZN_4,
Outdoors,,SunExposed,WindExposed,AutoCalculate,4.0,0.0,48.7381,2.744,0.0,48.7381,0.0,0.0,0.0,0.0,
0.0,0.0,2.744;
BuildingSurface:Detailed,Perimeter_mid_ZN_1_Ceiling,Ceiling,DropCeiling,Perimeter_mid_ZN_1,Surface,
MidFloor_Plenum_Floor_1,NoSun,NoWind,AutoCalculate,4.0,4.5732,4.5732,22.56,0.0,0.0,22.56,73.1072,
0.0,22.56,68.534,4.5732,22.56;
BuildingSurface:Detailed,Perimeter_mid_ZN_1_Floor,Floor,INT-FLOOR-TOPSIDE,Perimeter_mid_ZN_1,
Surface,Perimeter_mid_ZN_1_Floor,NoSun,NoWind,AutoCalculate,4.0,68.534,4.5732,19.816,73.1072,0.0,
19.816,0.0,0.0,19.816,4.5732,4.5732,19.816;
BuildingSurface:Detailed,Perimeter_mid_ZN_1_Wall_East,Wall,int-walls,Perimeter_mid_ZN_1,Surface,
Perimeter_mid_ZN_2_Wall_South,NoSun,NoWind,AutoCalculate,4.0,73.1072,0.0,22.56,73.1072,0.0,19.816,
68.534,4.5732,19.816,68.534,4.5732,22.56;
BuildingSurface:Detailed,Perimeter_mid_ZN_1_Wall_North,Wall,int-walls,Perimeter_mid_ZN_1,Surface,
Core_mid_ZN_5_Wall_South,NoSun,NoWind,AutoCalculate,4.0,68.534,4.5732,22.56,68.534,4.5732,19.816,
4.5732,4.5732,19.816,4.5732,4.5732,22.56;
BuildingSurface:Detailed,Perimeter_mid_ZN_1_Wall_South,Wall,Mass Non-res Ext Wall,
Perimeter_mid_ZN_1,Outdoors,,SunExposed,WindExposed,AutoCalculate,4.0,0.0,0.0,22.56,0.0,0.0,19.816,
73.1072,0.0,19.816,73.1072,0.0,22.56;
BuildingSurface:Detailed,Perimeter_mid_ZN_1_Wall_West,Wall,int-walls,Perimeter_mid_ZN_1,Surface,
Perimeter_mid_ZN_4_Wall_South,NoSun,NoWind,AutoCalculate,4.0,4.5732,4.5732,22.56,4.5732,4.5732,
19.816,0.0,0.0,19.816,0.0,0.0,22.56;
BuildingSurface:Detailed,Perimeter_mid_ZN_2_Ceiling,Ceiling,DropCeiling,Perimeter_mid_ZN_2,Surface,
MidFloor_Plenum_Floor_2,NoSun,NoWind,AutoCalculate,4.0,68.534,4.5732,22.56,73.1072,0.0,22.56,
73.1072,48.7381,22.56,68.534,44.165,22.56;
BuildingSurface:Detailed,Perimeter_mid_ZN_2_Floor,Floor,INT-FLOOR-TOPSIDE,Perimeter_mid_ZN_2,
Surface,Perimeter_mid_ZN_2_Floor,NoSun,NoWind,AutoCalculate,4.0,68.534,44.165,19.816,73.1072,
48.7381,19.816,73.1072,0.0,19.816,68.534,4.5732,19.816;
BuildingSurface:Detailed,Perimeter_mid_ZN_2_Wall_East,Wall,Mass Non-res Ext Wall,Perimeter_mid_ZN_2,
Outdoors,,SunExposed,WindExposed,AutoCalculate,4.0,73.1072,0.0,22.56,73.1072,0.0,19.816,73.1072,
48.7381,19.816,73.1072,48.7381,22.56;
BuildingSurface:Detailed,Perimeter_mid_ZN_2_Wall_North,Wall,int-walls,Perimeter_mid_ZN_2,Surface,
Perimeter_mid_ZN_3_Wall_East,NoSun,NoWind,AutoCalculate,4.0,73.1072,48.7381,22.56,73.1072,48.7381,
19.816,68.534,44.165,19.816,68.534,44.165,22.56;
BuildingSurface:Detailed,Perimeter_mid_ZN_2_Wall_South,Wall,int-walls,Perimeter_mid_ZN_2,Surface,
Perimeter_mid_ZN_1_Wall_East,NoSun,NoWind,AutoCalculate,4.0,68.534,4.5732,22.56,68.534,4.5732,
19.816,73.1072,0.0,19.816,73.1072,0.0,22.56;
BuildingSurface:Detailed,Perimeter_mid_ZN_2_Wall_West,Wall,int-walls,Perimeter_mid_ZN_2,Surface,
Core_mid_ZN_5_Wall_East,NoSun,NoWind,AutoCalculate,4.0,68.534,44.165,22.56,68.534,44.165,19.816,
68.534,4.5732,19.816,68.534,4.5732,22.56;
BuildingSurface:Detailed,Perimeter_mid_ZN_3_Ceiling,Ceiling,DropCeiling,Perimeter_mid_ZN_3,Surface,
MidFloor_Plenum_Floor_3,NoSun,NoWind,AutoCalculate,4.0,68.534,44.165,22.56,73.1072,48.7381,22.56,
0.0,48.7381,22.56,4.5732,44.165,22.56;
BuildingSurface:Detailed,Perimeter_mid_ZN_3_Floor,Floor,INT-FLOOR-TOPSIDE,Perimeter_mid_ZN_3,
Surface,Perimeter_mid_ZN_3_Floor,NoSun,NoWind,AutoCalculate,4.0,4.5732,44.165,19.816,0.0,48.7381,
19.816,73.1072,48.7381,19.816,68.534,44.165,19.816;
BuildingSurface:Detailed,Perimeter_mid_ZN_3_Wall_East,Wall,int-walls,Perimeter_mid_ZN_3,Surface,
Perimeter_mid_ZN_2_Wall_North,NoSun,NoWind,AutoCalculate,4.0,68.534,44.165,22.56,68.534,44.165,
19.816,73.1072,48.7381,19.816,73.1072,48.7381,22.56;
BuildingSurface:Detailed,Perimeter_mid_ZN_3_Wall_North,Wall,Mass Non-res Ext Wall,
Perimeter_mid_ZN_3,Outdoors,,SunExposed,WindExposed,AutoCalculate,4.0,73.1072,48.7381,22.56,73.1072,
48.7381,19.816,0.0,48.7381,19.816,0.0,48.7381,22.56;
BuildingSurface:Detailed,Perimeter_mid_ZN_3_Wall_South,Wall,int-walls,Perimeter_mid_ZN_3,Surface,
Core_mid_ZN_5_Wall_North,NoSun,NoWind,AutoCalculate,4.0,4.5732,44.165,22.56,4.5732,44.165,19.816,
68.534,44.165,19.816,68.534,44.165,22.56;
BuildingSurface:Detailed,Perimeter_mid_ZN_3_Wall_West,Wall,int-walls,Perimeter_mid_ZN_3,Surface,
Perimeter_mid_ZN_4_Wall_North,NoSun,NoWind,AutoCalculate,4.0,0.0,48.7381,22.56,0.0,48.7381,19.816,
4.5732,44.165,19.816,4.5732,44.165,22.56;
BuildingSurface:Detailed,Perimeter_mid_ZN_4_Ceiling,Ceiling,DropCeiling,Perimeter_mid_ZN_4,Surface,
MidFloor_Plenum_Floor_4,NoSun,NoWind,AutoCalculate,4.0,4.5732,44.165,22.56,0.0,48.7381,22.56,0.0,
0.0,22.56,4.5732,4.5732,22.56;
BuildingSurface:Detailed,Perimeter_mid_ZN_4_Floor,Floor,INT-FLOOR-TOPSIDE,Perimeter_mid_ZN_4,
Surface,Perimeter_mid_ZN_4_Floor,NoSun,NoWind,AutoCalculate,4.0,4.5732,4.5732,19.816,0.0,0.0,19.816,
0.0,48.7381,19.816,4.5732,44.165,19.816;
BuildingSurface:Detailed,Perimeter_mid_ZN_4_Wall_East,Wall,int-walls,Perimeter_mid_ZN_4,Surface,
Core_mid_ZN_5_Wall_West,NoSun,NoWind,AutoCalculate,4.0,4.5732,4.5732,22.56,4.5732,4.5732,19.816,
4.5732,44.165,19.816,4.5732,44.165,22.56;
BuildingSurface:Detailed,Perimeter_mid_ZN_4_Wall_North,Wall,int-walls,Perimeter_mid_ZN_4,Surface,
Perimeter_mid_ZN_3_Wall_West,NoSun,NoWind,AutoCalculate,4.0,4.5732,44.165,22.56,4.5732,44.165,
19.816,0.0,48.7381,19.816,0.0,48.7381,22.56;
BuildingSurface:Detailed,Perimeter_mid_ZN_4_Wall_South,Wall,int-walls,Perimeter_mid_ZN_4,Surface,
Perimeter_mid_ZN_1_Wall_West,NoSun,NoWind,AutoCalculate,4.0,0.0,0.0,22.56,0.0,0.0,19.816,4.5732,
4.5732,19.816,4.5732,4.5732,22.56;
BuildingSurface:Detailed,Perimeter_mid_ZN_4_Wall_West,Wall,Mass Non-res Ext Wall,Perimeter_mid_ZN_4,
Outdoors,,SunExposed,WindExposed,AutoCalculate,4.0,0.0,48.7381,22.56,0.0,48.7381,19.816,0.0,0.0,
19.816,0.0,0.0,22.56;
BuildingSurface:Detailed,Perimeter_top_ZN_1_Ceiling,Ceiling,DropCeiling,Perimeter_top_ZN_1,Surface,
TopFloor_Plenum_Floor_1,NoSun,NoWind,AutoCalculate,4.0,4.5732,4.5732,46.3392,0.0,0.0,46.3392,
73.1072,0.0,46.3392,68.534,4.5732,46.3392;
BuildingSurface:Detailed,Perimeter_top_ZN_1_Floor,Floor,INT-FLOOR-TOPSIDE,Perimeter_top_ZN_1,
Surface,Perimeter_top_ZN_1_Floor,NoSun,NoWind,AutoCalculate,4.0,68.534,4.5732,43.5952,73.1072,0.0,
43.5952,0.0,0.0,43.5952,4.5732,4.5732,43.5952;
BuildingSurface:Detailed,Perimeter_top_ZN_1_Wall_East,Wall,int-walls,Perimeter_top_ZN_1,Surface,
Perimeter_top_ZN_2_Wall_South,NoSun,NoWind,AutoCalculate,4.0,73.1072,0.0,46.3392,73.1072,0.0,
43.5952,68.534,4.5732,43.5952,68.534,4.5732,46.3392;
BuildingSurface:Detailed,Perimeter_top_ZN_1_Wall_North,Wall,int-walls,Perimeter_top_ZN_1,Surface,
Core_top_ZN_5_Wall_South,NoSun,NoWind,AutoCalculate,4.0,68.534,4.5732,46.3392,68.534,4.5732,43.5952,
4.5732,4.5732,43.5952,4.5732,4.5732,46.3392;
BuildingSurface:Detailed,Perimeter_top_ZN_1_Wall_South,Wall,Mass Non-res Ext Wall,
Perimeter_top_ZN_1,Outdoors,,SunExposed,WindExposed,AutoCalculate,4.0,0.0,0.0,46.3392,0.0,0.0,
43.5952,73.1072,0.0,43.5952,73.1072,0.0,46.3392;
BuildingSurface:Detailed,Perimeter_top_ZN_1_Wall_West,Wall,int-walls,Perimeter_top_ZN_1,Surface,
Perimeter_top_ZN_4_Wall_South,NoSun,NoWind,AutoCalculate,4.0,4.5732,4.5732,46.3392,4.5732,4.5732,
43.5952,0.0,0.0,43.5952,0.0,0.0,46.3392;
BuildingSurface:Detailed,Perimeter_top_ZN_2_Ceiling,Ceiling,DropCeiling,Perimeter_top_ZN_2,Surface,
TopFloor_Plenum_Floor_2,NoSun,NoWind,AutoCalculate,4.0,68.534,4.5732,46.3392,73.1072,0.0,46.3392,
73.1072,48.7381,46.3392,68.534,44.165,46.3392;
BuildingSurface:Detailed,Perimeter_top_ZN_2_Floor,Floor,INT-FLOOR-TOPSIDE,Perimeter_top_ZN_2,
Surface,Perimeter_top_ZN_2_Floor,NoSun,NoWind,AutoCalculate,4.0,68.534,44.165,43.5952,73.1072,
48.7381,43.5952,73.1072,0.0,43.5952,68.534,4.5732,43.5952;
BuildingSurface:Detailed,Perimeter_top_ZN_2_Wall_East,Wall,Mass Non-res Ext Wall,Perimeter_top_ZN_2,
Outdoors,,SunExposed,WindExposed,AutoCalculate,4.0,73.1072,0.0,46.3392,73.1072,0.0,43.5952,73.1072,
48.7381,43.5952,73.1072,48.7381,46.3392;
BuildingSurface:Detailed,Perimeter_top_ZN_2_Wall_North,Wall,int-walls,Perimeter_top_ZN_2,Surface,