!-Generator IDFEditor 1.44
!-Option SortedOrder

!-NOTE: All comments with '!-' are ignored by the IDFEditor and are generated automatically.
!-      Use '!' comments if they need to be retained when using the IDFEditor.


!-   ===========  ALL OBJECTS IN CLASS: VERSION ===========

! Approximation of the HVAC systems for the testing rooms:
!   * Single fan single duct constant air volume system.
!   * Variable chilled water flow rate with a lower limit to approximate the minimum cold air flow.
!   * Maximum supply air is higher than that of a single fan air volume in real case to better match measured cooling load.
!   * Fan efficiency and pressure rise are tuned to better match measured cooling load.
!   * Fan motor is assumed to be out of the supply air stream in order not to conteminate the cooling load with inaccurate fan motor heat gain.
!   * Added a chilled bypass to account for additional amount of chilled water designed to cool three rooms.
! Approximation of lighting:
!   * Visible absorptances of surfaces are tuned such that the workplane illuminance in the middle of room matches the measured illuminance.
! Infiltration:
!   * Infiltration air flow rate is guessed as a small value.
Version,
    8.2;                     !- Version Identifier


!-   ===========  ALL OBJECTS IN CLASS: SIMULATIONCONTROL ===========

SimulationControl,
    No,                      !- Do Zone Sizing Calculation
    No,                      !- Do System Sizing Calculation
    No,                      !- Do Plant Sizing Calculation
    No,                      !- Run Simulation for Sizing Periods
    Yes;                     !- Run Simulation for Weather File Run Periods


!-   ===========  ALL OBJECTS IN CLASS: BUILDING ===========

Building,
    Building 71T Rm 102,     !- Name
    0,                       !- North Axis {deg}
    Suburbs,                 !- Terrain
    0.04,                    !- Loads Convergence Tolerance Value
    0.4,                     !- Temperature Convergence Tolerance Value {deltaC}
    FullInteriorAndExterior, !- Solar Distribution
    25,                      !- Maximum Number of Warmup Days
    6;                       !- Minimum Number of Warmup Days


!-   ===========  ALL OBJECTS IN CLASS: SHADOWCALCULATION ===========

ShadowCalculation,
    AverageOverDaysInFrequency,  !- Calculation Method
    20,                      !- Calculation Frequency
    50000;                   !- Maximum Figures in Shadow Overlap Calculations


!-   ===========  ALL OBJECTS IN CLASS: SURFACECONVECTIONALGORITHM:INSIDE ===========

SurfaceConvectionAlgorithm:Inside,
    TARP;                    !- Algorithm


!-   ===========  ALL OBJECTS IN CLASS: SURFACECONVECTIONALGORITHM:OUTSIDE ===========

SurfaceConvectionAlgorithm:Outside,
    TARP;                    !- Algorithm


!-   ===========  ALL OBJECTS IN CLASS: HEATBALANCEALGORITHM ===========

HeatBalanceAlgorithm,
    ConductionTransferFunction;  !- Algorithm


!-   ===========  ALL OBJECTS IN CLASS: ZONECAPACITANCEMULTIPLIER:RESEARCHSPECIAL ===========

ZoneCapacitanceMultiplier:ResearchSpecial,
    1,                       !- Temperature Capacity Multiplier
    1,                       !- Humidity Capacity Multiplier
    1,                       !- Carbon Dioxide Capacity Multiplier
    1.0;                     !- Generic Contaminant Capacity Multiplier


!-   ===========  ALL OBJECTS IN CLASS: TIMESTEP ===========

Timestep,
    4;                       !- Number of Timesteps per Hour


!-   ===========  ALL OBJECTS IN CLASS: SITE:LOCATION ===========

Site:Location,
    San Francisco,           !- Name
    37.62,                   !- Latitude {deg}
    -122.4,                  !- Longitude {deg}
    -8.0,                    !- Time Zone {hr}
    2;                       !- Elevation {m}


!-   ===========  ALL OBJECTS IN CLASS: RUNPERIOD ===========

! MWetter: Run test with specified ground reflectance. The default is 0.2.
!Site:GroundReflectance,
!0.05, 0.2, 0.2, 0.2, 0.2, 0.2, 0.2, 0.2, 0.2, 0.2, 0.2, 0.2;
! End MWetter
! SAN_FRANCISCO_CA_USA Annual Heating 99.6%, MaxDB=3.2degC
!SizingPeriod:DesignDay,
!    SAN_FRANCISCO Ann Htg 99.6% Condns DB,  !- Name
!    3.2,                     !- Maximum Dry-Bulb Temperature {C}
!    0.0,                     !- Daily Temperature Range {deltaC}
!    3.2,                     !- Humidity Indicating Conditions at Maximum Dry-Bulb
!    101265.,                 !- Barometric Pressure {Pa}
!    2.4,                     !- Wind Speed {m/s}
!    140,                     !- Wind Direction {deg}
!    0.00,                    !- Sky Clearness
!    0,                       !- Rain Indicator
!    0,                       !- Snow Indicator
!    21,                      !- Day of Month
!    1,                       !- Month
!    WinterDesignDay,         !- Day Type
!    0,                       !- Daylight Saving Time Indicator
!    WetBulb;                 !- Humidity Indicating Type
! SAN_FRANCISCO Annual Cooling Design Conditions Wind Speed=5.8m/s Wind Dir=310
! Hottest Month=SEP
! SAN_FRANCISCO_CA_USA Annual Cooling (DB=>MWB) .4%, MaxDB=28.3degC MWB=17.2degC
!SizingPeriod:DesignDay,
!    SAN_FRANCISCO Ann Clg .4% Condns DB=>MWB,  !- Name
!    28.3,                    !- Maximum Dry-Bulb Temperature {C}
!    9,                       !- Daily Temperature Range {deltaC}
!    17.2,                    !- Humidity Indicating Conditions at Maximum Dry-Bulb
!    101265.,                 !- Barometric Pressure {Pa}
!    5.8,                     !- Wind Speed {m/s}
!    310,                     !- Wind Direction {deg}
!    1.00,                    !- Sky Clearness
!    0,                       !- Rain Indicator
!    0,                       !- Snow Indicator
!    21,                      !- Day of Month
!    9,                       !- Month
!    SummerDesignDay,         !- Day Type
!    0,                       !- Daylight Saving Time Indicator
!    WetBulb;                 !- Humidity Indicating Type
RunPeriod,
    annual,                  !- Name
    1,                       !- Begin Month
    1,                       !- Begin Day of Month
    1,                       !- End Month
    7,                       !- End Day of Month
    Monday,                  !- Day of Week for Start Day
    No,                      !- Use Weather File Holidays and Special Days
    No,                      !- Use Weather File Daylight Saving Period
    Yes,                     !- Apply Weekend Holiday Rule
    Yes,                     !- Use Weather File Rain Indicators
    Yes;                     !- Use Weather File Snow Indicators


!-   ===========  ALL OBJECTS IN CLASS: SCHEDULETYPELIMITS ===========

ScheduleTypeLimits,
    AnyNumber,               !- Name
    ,                        !- Lower Limit Value
    ,                        !- Upper Limit Value
    Continuous;              !- Numeric Type

ScheduleTypeLimits,
    Thermostat Control Type, !- Name
    0,                       !- Lower Limit Value
    4,                       !- Upper Limit Value
    Discrete;                !- Numeric Type

ScheduleTypeLimits,
    On/Off,                  !- Name
    0,                       !- Lower Limit Value
    1,                       !- Upper Limit Value
    Discrete;                !- Numeric Type

ScheduleTypeLimits,
    Fraction,                !- Name
    0,                       !- Lower Limit Value
    1,                       !- Upper Limit Value
    Continuous;              !- Numeric Type

ScheduleTypeLimits,
    Temperature,             !- Name
    -60,                     !- Lower Limit Value
    200,                     !- Upper Limit Value
    Continuous;              !- Numeric Type


!-   ===========  ALL OBJECTS IN CLASS: SCHEDULE:COMPACT ===========

Schedule:Compact,
    Room 102 Lighting Schedule,  !- Name
    AnyNumber,               !- Schedule Type Limits Name
    Through: 12/31,          !- Field 1
    For: Weekdays SummerDesignDay,  !- Field 2
    Until:  7:00,            !- Field 3
    0,                       !- Field 4
    Until: 19:00,            !- Field 5
    0,                       !- Field 6
    Until: 24:00,            !- Field 7
    0,                       !- Field 8
    For: CustomDay1 CustomDay2,  !- Field 9
    Until:  7:00,            !- Field 10
    0,                       !- Field 11
    Until: 19:00,            !- Field 12
    0,                       !- Field 13
    Until: 24:00,            !- Field 14
    0,                       !- Field 15
    For: Weekends Holidays WinterDesignDay,  !- Field 16
    Until: 24:00,            !- Field 17
    0;                       !- Field 18

Schedule:Compact,
    Room 102 Infiltration Schedule,  !- Name
    AnyNumber,               !- Schedule Type Limits Name
    Through: 12/31,          !- Field 1
    For: Weekdays SummerDesignDay,  !- Field 2
    Until:  6:00,            !- Field 3
    1.0,                     !- Field 4
    Until: 19:00,            !- Field 5
    1.0,                     !- Field 6
    Until: 24:00,            !- Field 7
    1.0,                     !- Field 8
    For: CustomDay1 CustomDay2,  !- Field 9
    Until:  6:00,            !- Field 10
    1.0,                     !- Field 11
    Until: 19:00,            !- Field 12
    1.0,                     !- Field 13
    Until: 24:00,            !- Field 14
    1.0,                     !- Field 15
    For: Weekends Holidays WinterDesignDay,  !- Field 16
    Until:  6:00,            !- Field 17
    1.0,                     !- Field 18
    Until: 19:00,            !- Field 19
    1.0,                     !- Field 20
    Until: 24:00,            !- Field 21
    1.0;                     !- Field 22

Schedule:Compact,
    Room 102 Thermostat Type Schedule,  !- Name
    Thermostat Control Type, !- Schedule Type Limits Name
    Through: 12/31,          !- Field 1
    For: AllDays,            !- Field 2
    Until: 24:00,            !- Field 3
    3;                       !- Field 4

Schedule:Compact,
    Room 102 Temperature Setpoint Schedule,  !- Name
    Temperature,             !- Schedule Type Limits Name
    Through: 12/31,          !- Field 1
    For: AllDays,            !- Field 2
    Until: 24:00,            !- Field 3
    23.5;                    !- Field 4

Schedule:Compact,
    Room 102 Fan Schedule,   !- Name
    Fraction,                !- Schedule Type Limits Name
    Through: 12/31,          !- Field 1
    For: AllDays,            !- Field 2
    Until: 24:00,            !- Field 3
    1.00;                    !- Field 4

Schedule:Compact,
    Room 102 Coil Schedule,  !- Name
    Fraction,                !- Schedule Type Limits Name
    Through: 12/31,          !- Field 1
    For: AllDays,            !- Field 2
    Until: 24:00,            !- Field 3
    1.00;                    !- Field 4

Schedule:Compact,
    Water Loop Schedule,     !- Name
    Fraction,                !- Schedule Type Limits Name
    Through: 12/31,          !- Field 1
    For: AllDays,            !- Field 2
    Until: 24:00,            !- Field 3
    1.00;                    !- Field 4

Schedule:Compact,
    Water Loop Temperature Setpoint Schedule,  !- Name
    Temperature,             !- Schedule Type Limits Name
    Through: 12/31,          !- Field 1
    For: AllDays,            !- Field 2
    Until: 24:00,            !- Field 3
    4.50;                    !- Field 4

Schedule:Compact,
    Room 102 Electric Equipment Schedule,  !- Name
    Fraction,                !- Schedule Type Limits Name
    Through: 12/31,          !- Field 1
    For: AllDays,            !- Field 2
    Until: 24:00,            !- Field 3
    1.00;                    !- Field 4

Schedule:Compact,
    Window Panel Transmittance Schedule,  !- Name
    Fraction,                !- Schedule Type Limits Name
    Through: 12/31,          !- Field 1
    For: AllDays,            !- Field 2
    Until: 24:00,            !- Field 3
    0.5;                     !- Field 4

Schedule:Compact,
    Room 102 Compensating Cooling Load Schedule,  !- Name
    Fraction,                !- Schedule Type Limits Name
    Through: 12/31,          !- Field 1
    For: AllDays,            !- Field 2
    Until: 5:00,             !- Field 3
    0.00,                    !- Field 4
    Until:5:30,              !- Field 5
    0.10,                    !- Field 6
    Until: 6:00,             !- Field 7
    0.20,                    !- Field 8
    Until: 6:30,             !- Field 9
    0.30,                    !- Field 10
    Until: 7:00,             !- Field 11
    0.40,                    !- Field 12
    Until: 7:30,             !- Field 13
    0.50,                    !- Field 14
    Until: 8:00,             !- Field 15
    0.60,                    !- Field 16
    Until: 8:30,             !- Field 17
    0.70,                    !- Field 18
    Until: 9:00,             !- Field 19
    0.80,                    !- Field 20
    Until: 9:30,             !- Field 21
    0.90,                    !- Field 22
    Until: 10:00,            !- Field 23
    1.00,                    !- Field 24
    Until: 13:30,            !- Field 25
    0.90,                    !- Field 26
    Until: 14:00,            !- Field 27
    0.80,                    !- Field 28
    Until: 14:30,            !- Field 29
    0.70,                    !- Field 30
    Until:15:00,             !- Field 31
    0.60,                    !- Field 32
    Until:15:30,             !- Field 33
    0.50,                    !- Field 34
    Until: 16:00,            !- Field 35
    0.40,                    !- Field 36
    Until: 16:30,            !- Field 37
    0.30,                    !- Field 38
    Until: 17:00,            !- Field 39
    0.20,                    !- Field 40
    Until: 17:30,            !- Field 41
    0.10,                    !- Field 42
    Until: 24:00,            !- Field 43
    0.00;                    !- Field 44

Schedule:Compact,
    Room 102 Lighting Schedule_CHRIS,  !- Name
    AnyNumber,               !- Schedule Type Limits Name
    Through: 12/31,          !- Field 1
    For: Weekdays SummerDesignDay,  !- Field 2
    Until:  7:00,            !- Field 3
    0,                       !- Field 4
    Until: 19:00,            !- Field 5
    1,                       !- Field 6
    Until: 24:00,            !- Field 7
    0,                       !- Field 8
    For: CustomDay1 CustomDay2,  !- Field 9
    Until:  7:00,            !- Field 10
    0,                       !- Field 11
    Until: 19:00,            !- Field 12
    1,                       !- Field 13
    Until: 24:00,            !- Field 14
    0,                       !- Field 15
    For: Weekends Holidays WinterDesignDay,  !- Field 16
    Until: 24:00,            !- Field 17
    0;                       !- Field 18


!-   ===========  ALL OBJECTS IN CLASS: MATERIAL ===========

Material,
    MediumFurniture,         !- Name
    MediumSmooth,            !- Roughness
    0.57,                    !- Thickness {m}
    0.115,                   !- Conductivity {W/m-K}
    513,                     !- Density {kg/m3}
    1381,                    !- Specific Heat {J/kg-K}
    0.90,                    !- Thermal Absorptance
    0.75,                    !- Solar Absorptance
    0.75;                    !- Visible Absorptance

Material,
    2x6 Wood Stud R19,       !- Name
    Rough,                   !- Roughness
    0.133,                   !- Thickness {m}
    0.047,                   !- Conductivity {W/m-K}
    93.84,                   !- Density {kg/m3}
    1006,                    !- Specific Heat {J/kg-K}
    0.9,                     !- Thermal Absorptance
    0.7,                     !- Solar Absorptance
    0.7;                     !- Visible Absorptance

Material,
    Gypsum board - 5/8 in,   !- Name
    Smooth,                  !- Roughness
    0.015875,                !- Thickness {m}
    0.17,                    !- Conductivity {W/m-K}
    800,                     !- Density {kg/m3}
    1090,                    !- Specific Heat {J/kg-K}
    0.9,                     !- Thermal Absorptance
    0.7,                     !- Solar Absorptance
    0.3;                     !- Visible Absorptance

Material,
    Plywood - 3/8 in,        !- Name
    Smooth,                  !- Roughness
    0.009525,                !- Thickness {m}
    0.12,                    !- Conductivity {W/m-K}
    540,                     !- Density {kg/m3}
    1210;                    !- Specific Heat {J/kg-K}

Material,
    Plywood - 3/4 in,        !- Name
    Smooth,                  !- Roughness
    0.01905,                 !- Thickness {m}
    0.12,                    !- Conductivity {W/m-K}
    540,                     !- Density {kg/m3}
    1210;                    !- Specific Heat {J/kg-K}

Material,
    Plywood - 1/2 in,        !- Name
    Smooth,                  !- Roughness
    0.0127,                  !- Thickness {m}
    0.12,                    !- Conductivity {W/m-K}
    540,                     !- Density {kg/m3}
    1210;                    !- Specific Heat {J/kg-K}

Material,
    Metal Siding,            !- Name
    MediumSmooth,            !- Roughness
    0.000701,                !- Thickness {m}
    45.345,                  !- Conductivity {W/m-K}
    7833.028,                !- Density {kg/m3}
    502.416;                 !- Specific Heat {J/kg-K}

Material,
    T&G - 3/4 in,            !- Name
    MediumSmooth,            !- Roughness
    0.01905,                 !- Thickness {m}
    0.15,                    !- Conductivity {W/m-K}
    608,                     !- Density {kg/m3}
    1630;                    !- Specific Heat {J/kg-K}

Material,
    Insulation: Expanded polystyrene - molded beads - 16kg/m3 density,  !- Name
    VeryRough,               !- Roughness
    1.90500386169072E-02,    !- Thickness {m}
    0.037,                   !- Conductivity {W/m-K}
    16,                      !- Density {kg/m3}
    1210;                    !- Specific Heat {J/kg-K}

Material,
    F08 Metal surface,       !- Name
    Smooth,                  !- Roughness
    3.1750064361512E-03,     !- Thickness {m}
    45.28,                   !- Conductivity {W/m-K}
    7824,                    !- Density {kg/m3}
    500;                     !- Specific Heat {J/kg-K}

Material,
    Hardboard Medium density,!- Name
    Smooth,                  !- Roughness
    3.1750064361512E-03,     !- Thickness {m}
    0.105,                   !- Conductivity {W/m-K}
    800,                     !- Density {kg/m3}
    1300;                    !- Specific Heat {J/kg-K}

Material,
    F13 Built-up roofing,    !- Name
    Rough,                   !- Roughness
    0.0095,                  !- Thickness {m}
    0.16,                    !- Conductivity {W/m-K}
    1120,                    !- Density {kg/m3}
    1460,                    !- Specific Heat {J/kg-K}
    0.9,                     !- Thermal Absorptance
    0.7;                     !- Solar Absorptance


!-   ===========  ALL OBJECTS IN CLASS: MATERIAL:NOMASS ===========

Material:NoMass,
    Carpet w/rubber pad,     !- Name
    Rough,                   !- Roughness
    0.22,                    !- Thermal Resistance {m2-K/W}
    0.9,                     !- Thermal Absorptance
    0.7,                     !- Solar Absorptance
    0.85;                    !- Visible Absorptance

Material:NoMass,
    R-30 Fiberglass Insulation,  !- Name
    Rough,                   !- Roughness
    5.28,                    !- Thermal Resistance {m2-K/W}
    0.9,                     !- Thermal Absorptance
    0.7,                     !- Solar Absorptance
    0.7;                     !- Visible Absorptance

Material:NoMass,
    Nonres_Roof_Insulation,  !- Name
    MediumSmooth,            !- Roughness
    0.0299387330245182,      !- Thermal Resistance {m2-K/W}
    0.9,                     !- Thermal Absorptance
    0.7,                     !- Solar Absorptance
    0.7;                     !- Visible Absorptance


!-   ===========  ALL OBJECTS IN CLASS: MATERIAL:AIRGAP ===========

Material:AirGap,
    F04 Wall air space resistance,  !- Name
    0.15;                    !- Thermal Resistance {m2-K/W}


!-   ===========  ALL OBJECTS IN CLASS: WINDOWMATERIAL:GLAZING ===========

WindowMaterial:Glazing,
    ELECTRO GLASS LIGHT STATE,  !- Name
    SpectralAverage,         !- Optical Data Type
    ,                        !- Window Glass Spectral Data Set Name
    0.006,                   !- Thickness {m}
    0.814,                   !- Solar Transmittance at Normal Incidence
    0.086,                   !- Front Side Solar Reflectance at Normal Incidence
    0.086,                   !- Back Side Solar Reflectance at Normal Incidence
    0.847,                   !- Visible Transmittance at Normal Incidence
    0.099,                   !- Front Side Visible Reflectance at Normal Incidence
    0.099,                   !- Back Side Visible Reflectance at Normal Incidence
    0.0,                     !- Infrared Transmittance at Normal Incidence
    0.84,                    !- Front Side Infrared Hemispherical Emissivity
    0.84,                    !- Back Side Infrared Hemispherical Emissivity
    0.9;                     !- Conductivity {W/m-K}

WindowMaterial:Glazing,
    ELECTRO GLASS DARK STATE,!- Name
    SpectralAverage,         !- Optical Data Type
    ,                        !- Window Glass Spectral Data Set Name
    0.006,                   !- Thickness {m}
    0.111,                   !- Solar Transmittance at Normal Incidence
    0.179,                   !- Front Side Solar Reflectance at Normal Incidence
    0.179,                   !- Back Side Solar Reflectance at Normal Incidence
    0.128,                   !- Visible Transmittance at Normal Incidence
    0.081,                   !- Front Side Visible Reflectance at Normal Incidence
    0.081,                   !- Back Side Visible Reflectance at Normal Incidence
    0.0,                     !- Infrared Transmittance at Normal Incidence
    0.84,                    !- Front Side Infrared Hemispherical Emissivity
    0.84,                    !- Back Side Infrared Hemispherical Emissivity
    0.9;                     !- Conductivity {W/m-K}

WindowMaterial:Glazing,
    GLASS - CLEAR PLATE 1 / 4 IN,  !- Name
    SpectralAverage,         !- Optical Data Type
    ,                        !- Window Glass Spectral Data Set Name
    6.0000001E-03,           !- Thickness {m}
    0.7750000,               !- Solar Transmittance at Normal Incidence
    7.1000002E-02,           !- Front Side Solar Reflectance at Normal Incidence
    7.1000002E-02,           !- Back Side Solar Reflectance at Normal Incidence
    0.8810000,               !- Visible Transmittance at Normal Incidence
    7.9999998E-02,           !- Front Side Visible Reflectance at Normal Incidence
    7.9999998E-02,           !- Back Side Visible Reflectance at Normal Incidence
    0,                       !- Infrared Transmittance at Normal Incidence
    0.8400000,               !- Front Side Infrared Hemispherical Emissivity
    0.8400000,               !- Back Side Infrared Hemispherical Emissivity
    0.9000000;               !- Conductivity {W/m-K}


!-   ===========  ALL OBJECTS IN CLASS: WINDOWMATERIAL:GAS ===========

!       Window Gap Layers
WindowMaterial:Gas,
    wingap1_B71T_Glazing,    !- Name
    Air,                     !- Gas Type
    0.0127;                  !- Thickness {m}


!-   ===========  ALL OBJECTS IN CLASS: WINDOWMATERIAL:GASMIXTURE ===========

WindowMaterial:GasMixture,
    Gap_6_W_0_0100,          !- Name
    0.0100,                  !- Thickness {m}
    2,                       !- Number of Gases in Mixture
    Air,                     !- Gas 1 Type
    0.05,                    !- Gas 1 Fraction
    Argon,                   !- Gas 2 Type
    0.95;                    !- Gas 2 Fraction


!-   ===========  ALL OBJECTS IN CLASS: MATERIALPROPERTY:GLAZINGSPECTRALDATA ===========

MaterialProperty:GlazingSpectralData,
    Glass_5289F_Layer_SpecDat,  !- Name
    0.300000,                !- Wavelength 1 {micron}
    0.000000,                !- Transmittance 1
    0.250000,                !- Front Reflectance 1
    0.050600,                !- Back Reflectance 1
    0.305000,                !- Wavelength 2 {micron}
    0.000000,                !- Transmittance 2
    0.257000,                !- Front Reflectance 2
    0.050400,                !- Back Reflectance 2
    0.310000,                !- Wavelength 3 {micron}
    0.000000,                !- Transmittance 3
    0.270000,                !- Front Reflectance 3
    0.050300,                !- Back Reflectance 3
    0.315000,                !- Wavelength 4 {micron}
    0.000000,                !- Transmittance 4
    0.282900,                !- Front Reflectance 4
    0.050000,                !- Back Reflectance 4
    0.320000,                !- Wavelength 5 {micron}
    0.000000,                !- Transmittance 5
    0.292900,                !- Front Reflectance 5
    0.049900,                !- Back Reflectance 5
    0.325000,                !- N21
    0.000000,                !- N22
    0.301400,                !- N23
    0.049400,                !- N24
    0.330000,                !- N25
    0.000100,                !- N26
    0.306100,                !- N27
    0.049600,                !- N28
    0.335000,                !- N29
    0.000900,                !- N30
    0.303700,                !- N31
    0.049400,                !- N32
    0.340000,                !- N33
    0.004800,                !- N34
    0.295500,                !- N35
    0.049200,                !- N36
    0.345000,                !- N37
    0.015500,                !- N38
    0.283400,                !- N39
    0.049700,                !- N40
    0.350000,                !- N41
    0.036400,                !- N42
    0.267700,                !- N43
    0.051800,                !- N44
    0.355000,                !- N45
    0.067100,                !- N46
    0.249100,                !- N47
    0.056400,                !- N48
    0.360000,                !- N49
    0.104600,                !- N50
    0.228100,                !- N51
    0.062800,                !- N52
    0.365000,                !- N53
    0.144900,                !- N54
    0.205700,                !- N55
    0.069800,                !- N56
    0.370000,                !- N57
    0.179100,                !- N58
    0.182800,                !- N59
    0.073400,                !- N60
    0.375000,                !- N61
    0.197600,                !- N62
    0.160000,                !- N63
    0.072000,                !- N64
    0.380000,                !- N65
    0.219700,                !- N66
    0.137500,                !- N67
    0.071300,                !- N68
    0.385000,                !- N69
    0.267300,                !- N70
    0.117000,                !- N71
    0.075600,                !- N72
    0.390000,                !- N73
    0.319600,                !- N74
    0.099200,                !- N75
    0.079500,                !- N76
    0.395000,                !- N77
    0.360300,                !- N78
    0.083400,                !- N79
    0.080700,                !- N80
    0.400000,                !- N81
    0.387800,                !- N82
    0.069300,                !- N83
    0.079200,                !- N84
    0.410000,                !- N85
    0.411000,                !- N86
    0.046000,                !- N87
    0.071700,                !- N88
    0.420000,                !- N89
    0.415900,                !- N90
    0.030100,                !- N91
    0.064700,                !- N92
    0.430000,                !- N93
    0.414000,                !- N94
    0.019900,                !- N95
    0.059400,                !- N96
    0.440000,                !- N97
    0.405600,                !- N98
    0.014000,                !- N99
    0.055500,                !- N100
    0.450000,                !- N101
    0.404200,                !- N102
    0.011700,                !- N103
    0.053200,                !- N104
    0.460000,                !- N105
    0.402700,                !- N106
    0.011900,                !- N107
    0.051300,                !- N108
    0.470000,                !- N109
    0.396000,                !- N110
    0.013600,                !- N111
    0.050300,                !- N112
    0.480000,                !- N113
    0.386700,                !- N114
    0.016100,                !- N115
    0.049600,                !- N116
    0.490000,                !- N117
    0.379700,                !- N118
    0.019400,                !- N119
    0.049300,                !- N120
    0.500000,                !- N121
    0.377500,                !- N122
    0.022800,                !- N123
    0.049200,                !- N124
    0.510000,                !- N125
    0.373600,                !- N126
    0.026000,                !- N127
    0.049500,                !- N128
    0.520000,                !- N129
    0.373000,                !- N130
    0.028700,                !- N131
    0.049800,                !- N132
    0.530000,                !- N133
    0.378400,                !- N134
    0.030800,                !- N135
    0.050100,                !- N136
    0.540000,                !- N137
    0.400800,                !- N138
    0.032100,                !- N139
    0.050600,                !- N140
    0.550000,                !- N141
    0.432000,                !- N142
    0.033000,                !- N143
    0.051300,                !- N144
    0.560000,                !- N145
    0.446300,                !- N146
    0.031600,                !- N147
    0.051200,                !- N148
    0.570000,                !- N149
    0.430200,                !- N150
    0.028200,                !- N151
    0.050000,                !- N152
    0.580000,                !- N153
    0.395300,                !- N154
    0.023600,                !- N155
    0.048400,                !- N156