
OS:Version,
  {d2346627-17d4-48bb-9254-e53238858fea}, !- Handle
  2.8.0;                                  !- Version Identifier

OS:Site,
  {690f6be5-7d8d-4e79-84af-2af5f1be5b10}, !- Handle
  Chicago Ohare Intl Ap,                  !- Name
  41.98,                                  !- Latitude {deg}
  -87.92,                                 !- Longitude {deg}
  -6,                                     !- Time Zone {hr}
  201,                                    !- Elevation {m}
  ;                                       !- Terrain

OS:YearDescription,
  {97eac801-b771-492f-8a8d-e41e354f32f5}, !- Handle
  ,                                       !- Calendar Year
  Sunday;                                 !- Day of Week for Start Day

OS:ClimateZones,
  {83229920-248b-474f-967b-3de4caff1664}, !- Handle
  ,                                       !- Active Institution
  ,                                       !- Active Year
  ,                                       !- Climate Zone Institution Name 1
  ,                                       !- Climate Zone Document Name 1
  ,                                       !- Climate Zone Document Year 1
  ,                                       !- Climate Zone Value 1
  CEC,                                    !- Climate Zone Institution Name 2
  California Climate Zone Descriptions,   !- Climate Zone Document Name 2
  1995,                                   !- Climate Zone Document Year 2
  ;                                       !- Climate Zone Value 2

OS:Building,
  {2a05a3b7-61ae-435d-a021-84749e33922f}, !- Handle
  Building 1,                             !- Name
  ,                                       !- Building Sector Type
  ,                                       !- North Axis {deg}
  ,                                       !- Nominal Floor to Floor Height {m}
  ,                                       !- Space Type Name
  ,                                       !- Default Construction Set Name
  ;                                       !- Default Schedule Set Name

OS:Facility,
  {b7a8f4a8-aaa4-40eb-9fdd-5e3585adce24}; !- Handle

OS:SimulationControl,
  {b945c489-d5f5-4afc-9ccd-4eb38471941b}; !- Handle

OS:Sizing:Parameters,
  {db4d9e47-69be-4101-95e4-146071d6f30e}, !- Handle
  1.25,                                   !- Heating Sizing Factor
  1.15;                                   !- Cooling Sizing Factor

OS:Timestep,
  {77081bbe-2746-443f-8e56-965db02a7c73}, !- Handle
  6;                                      !- Number of Timesteps per Hour

OS:ShadowCalculation,
  {cd3f6a22-2adf-4f9c-8e38-fdaaf7c5cf6e}, !- Handle
  20,                                     !- Calculation Frequency
  15000;                                  !- Maximum Figures in Shadow Overlap Calculations

OS:HeatBalanceAlgorithm,
  {14f0cd0b-b878-459e-bdbd-da4b55ce3da5}, !- Handle
  ConductionTransferFunction,             !- Algorithm
  200;                                    !- Surface Temperature Upper Limit {C}

OS:RunPeriod,
  {86243f36-8fe5-491b-8b3d-46aea168ad7a}, !- Handle
  Run Period 1,                           !- Name
  1,                                      !- Begin Month
  1,                                      !- Begin Day of Month
  12,                                     !- End Month
  31,                                     !- End Day of Month
  ,                                       !- Use Weather File Holidays and Special Days
  ,                                       !- Use Weather File Daylight Saving Period
  ,                                       !- Apply Weekend Holiday Rule
  ,                                       !- Use Weather File Rain Indicators
  ,                                       !- Use Weather File Snow Indicators
  ;                                       !- Number of Times Runperiod to be Repeated

OS:LifeCycleCost:Parameters,
  {e2c54140-acaf-46fa-9797-d91e7b3dc171}, !- Handle
  ,                                       !- Analysis Type
  ,                                       !- Discounting Convention
  ,                                       !- Inflation Approach
  ,                                       !- Real Discount Rate
  ,                                       !- Nominal Discount Rate
  ,                                       !- Inflation
  ,                                       !- Base Date Month
  ,                                       !- Base Date Year
  ,                                       !- Service Date Month
  ,                                       !- Service Date Year
  ;                                       !- Length of Study Period in Years

OS:Space,
  {724844d5-b993-4506-9bde-ab4cb586d059}, !- Handle
  Space 1 - 2,                            !- Name
  {6cc9859b-26c7-425d-b6f0-773921874ee9}, !- Space Type Name
  {20d69828-c06f-4036-a4a7-6fa3a7c3eed6}, !- Default Construction Set Name
  {79ba1b09-7ffe-4797-a95d-3654b1088d1e}, !- Default Schedule Set Name
  ,                                       !- Direction of Relative North {deg}
  ,                                       !- X Origin {m}
  ,                                       !- Y Origin {m}
  ,                                       !- Z Origin {m}
  {048456c3-3e61-4456-8edd-bce04268bc84}, !- Building Story Name
  {cc8b1ac1-2e2b-4f46-914f-222de31d8093}, !- Thermal Zone Name
  ,                                       !- Part of Total Floor Area
  ,                                       !- Design Specification Outdoor Air Object Name
  ;                                       !- Building Unit Name

OS:ThermalZone,
  {cc8b1ac1-2e2b-4f46-914f-222de31d8093}, !- Handle
  Thermal Zone 2,                         !- Name
  1,                                      !- Multiplier
  ,                                       !- Ceiling Height {m}
  ,                                       !- Volume {m3}
  ,                                       !- Floor Area {m2}
  ,                                       !- Zone Inside Convection Algorithm
  ,                                       !- Zone Outside Convection Algorithm
  ,                                       !- Zone Conditioning Equipment List Name
  {cfc2ead1-3e77-41a4-96e5-f4289397827f}, !- Zone Air Inlet Port List
  {7c7f8080-9a87-4a78-a4c5-90679fe34d0c}, !- Zone Air Exhaust Port List
  {ed0f3d09-0c26-4022-9af6-deb70175d344}, !- Zone Air Node Name
  {aeae6dfa-44b0-40a3-a3f9-1db8ca62fffc}, !- Zone Return Air Port List
  ,                                       !- Primary Daylighting Control Name
  ,                                       !- Fraction of Zone Controlled by Primary Daylighting Control
  ,                                       !- Secondary Daylighting Control Name
  ,                                       !- Fraction of Zone Controlled by Secondary Daylighting Control
  ,                                       !- Illuminance Map Name
  {edbfd83c-93e6-4e7f-98d9-da377a4ec6fb}, !- Group Rendering Name
  ,                                       !- Thermostat Name
  No;                                     !- Use Ideal Air Loads

OS:Node,
  {fa0517d4-a7cd-42b3-b6c6-4a37342c8326}, !- Handle
  Node 1,                                 !- Name
  {ed0f3d09-0c26-4022-9af6-deb70175d344}, !- Inlet Port
  ;                                       !- Outlet Port

OS:Connection,
  {ed0f3d09-0c26-4022-9af6-deb70175d344}, !- Handle
  {9817e43e-b2a5-4d12-b320-d11dc8a57789}, !- Name
  {cc8b1ac1-2e2b-4f46-914f-222de31d8093}, !- Source Object
  11,                                     !- Outlet Port
  {fa0517d4-a7cd-42b3-b6c6-4a37342c8326}, !- Target Object
  2;                                      !- Inlet Port

OS:PortList,
  {cfc2ead1-3e77-41a4-96e5-f4289397827f}, !- Handle
  {79827953-b2c2-4b7d-b71d-c3eb44208929}, !- Name
  {cc8b1ac1-2e2b-4f46-914f-222de31d8093}; !- HVAC Component

OS:PortList,
  {7c7f8080-9a87-4a78-a4c5-90679fe34d0c}, !- Handle
  {20cf073e-a7a3-4a2f-98b8-cfd723c07729}, !- Name
  {cc8b1ac1-2e2b-4f46-914f-222de31d8093}; !- HVAC Component

OS:PortList,
  {aeae6dfa-44b0-40a3-a3f9-1db8ca62fffc}, !- Handle
  {ebb7efa1-0b5a-4e89-85aa-bae689b9f8b2}, !- Name
  {cc8b1ac1-2e2b-4f46-914f-222de31d8093}; !- HVAC Component

OS:Sizing:Zone,
  {2efa9500-2272-430e-9ccb-93401ca22066}, !- Handle
  {cc8b1ac1-2e2b-4f46-914f-222de31d8093}, !- Zone or ZoneList Name
  SupplyAirTemperature,                   !- Zone Cooling Design Supply Air Temperature Input Method
  14,                                     !- Zone Cooling Design Supply Air Temperature {C}
  11.11,                                  !- Zone Cooling Design Supply Air Temperature Difference {deltaC}
  SupplyAirTemperature,                   !- Zone Heating Design Supply Air Temperature Input Method
  40,                                     !- Zone Heating Design Supply Air Temperature {C}
  11.11,                                  !- Zone Heating Design Supply Air Temperature Difference {deltaC}
  0.0085,                                 !- Zone Cooling Design Supply Air Humidity Ratio {kg-H2O/kg-air}
  0.008,                                  !- Zone Heating Design Supply Air Humidity Ratio {kg-H2O/kg-air}
  ,                                       !- Zone Heating Sizing Factor
  ,                                       !- Zone Cooling Sizing Factor
  DesignDay,                              !- Cooling Design Air Flow Method
  ,                                       !- Cooling Design Air Flow Rate {m3/s}
  ,                                       !- Cooling Minimum Air Flow per Zone Floor Area {m3/s-m2}
  ,                                       !- Cooling Minimum Air Flow {m3/s}
  ,                                       !- Cooling Minimum Air Flow Fraction
  DesignDay,                              !- Heating Design Air Flow Method
  ,                                       !- Heating Design Air Flow Rate {m3/s}
  ,                                       !- Heating Maximum Air Flow per Zone Floor Area {m3/s-m2}
  ,                                       !- Heating Maximum Air Flow {m3/s}
  ,                                       !- Heating Maximum Air Flow Fraction
  ,                                       !- Design Zone Air Distribution Effectiveness in Cooling Mode
  ,                                       !- Design Zone Air Distribution Effectiveness in Heating Mode
  No,                                     !- Account for Dedicated Outdoor Air System
  NeutralSupplyAir,                       !- Dedicated Outdoor Air System Control Strategy
  autosize,                               !- Dedicated Outdoor Air Low Setpoint Temperature for Design {C}
  autosize;                               !- Dedicated Outdoor Air High Setpoint Temperature for Design {C}

OS:ZoneHVAC:EquipmentList,
  {7e90ab5d-8e78-4c69-a1f1-449a1d52f028}, !- Handle
  Zone HVAC Equipment List 1,             !- Name
  {cc8b1ac1-2e2b-4f46-914f-222de31d8093}; !- Thermal Zone

OS:Rendering:Color,
  {edbfd83c-93e6-4e7f-98d9-da377a4ec6fb}, !- Handle
  Rendering Color 1,                      !- Name
  51,                                     !- Rendering Red Value
  34,                                     !- Rendering Green Value
  136,                                    !- Rendering Blue Value
  255;                                    !- Rendering Alpha Value

OS:BuildingStory,
  {048456c3-3e61-4456-8edd-bce04268bc84}, !- Handle
  Story 1,                                !- Name
  0,                                      !- Nominal Z Coordinate {m}
  3.2,                                    !- Nominal Floor to Floor Height {m}
  {20d69828-c06f-4036-a4a7-6fa3a7c3eed6}, !- Default Construction Set Name
  {79ba1b09-7ffe-4797-a95d-3654b1088d1e}, !- Default Schedule Set Name
  {b04bfa77-dec4-4f1d-9218-55c362db737f}, !- Group Rendering Name
  3.2;                                    !- Nominal Floor to Ceiling Height {m}

OS:Rendering:Color,
  {b04bfa77-dec4-4f1d-9218-55c362db737f}, !- Handle
  Rendering Color 2,                      !- Name
  51,                                     !- Rendering Red Value
  34,                                     !- Rendering Green Value
  136,                                    !- Rendering Blue Value
  255;                                    !- Rendering Alpha Value

OS:Space,
  {25453c2c-b20c-4b53-bffa-132541583fbd}, !- Handle
  Space 1 - 1,                            !- Name
  {59b7f186-7709-450e-8c76-bab96e2f65d1}, !- Space Type Name
  {20d69828-c06f-4036-a4a7-6fa3a7c3eed6}, !- Default Construction Set Name
  {79ba1b09-7ffe-4797-a95d-3654b1088d1e}, !- Default Schedule Set Name
  ,                                       !- Direction of Relative North {deg}
  ,                                       !- X Origin {m}
  ,                                       !- Y Origin {m}
  ,                                       !- Z Origin {m}
  {048456c3-3e61-4456-8edd-bce04268bc84}, !- Building Story Name
  {a79c1cbc-96e5-4d9b-aa74-f6a13e8e99e4}, !- Thermal Zone Name
  ,                                       !- Part of Total Floor Area
  ,                                       !- Design Specification Outdoor Air Object Name
  ;                                       !- Building Unit Name

OS:ThermalZone,
  {a79c1cbc-96e5-4d9b-aa74-f6a13e8e99e4}, !- Handle
  Thermal Zone 1,                         !- Name
  1,                                      !- Multiplier
  ,                                       !- Ceiling Height {m}
  ,                                       !- Volume {m3}
  ,                                       !- Floor Area {m2}
  ,                                       !- Zone Inside Convection Algorithm
  ,                                       !- Zone Outside Convection Algorithm
  ,                                       !- Zone Conditioning Equipment List Name
  {351df00d-9607-4626-8505-b1599577e5f0}, !- Zone Air Inlet Port List
  {bbae1f49-c625-49b9-b170-0815b596dce4}, !- Zone Air Exhaust Port List
  {c6040cb1-5822-46a2-a8a3-a2113583359c}, !- Zone Air Node Name
  {73d71843-7143-441b-83a3-7f247a65a1bb}, !- Zone Return Air Port List
  ,                                       !- Primary Daylighting Control Name
  ,                                       !- Fraction of Zone Controlled by Primary Daylighting Control
  ,                                       !- Secondary Daylighting Control Name
  ,                                       !- Fraction of Zone Controlled by Secondary Daylighting Control
  ,                                       !- Illuminance Map Name
  {1c0de51a-5120-43ec-93c0-b64a4fc550f4}, !- Group Rendering Name
  ,                                       !- Thermostat Name
  No;                                     !- Use Ideal Air Loads

OS:Node,
  {c171d4e3-6099-4b57-a3b8-1f29a7cdc8fb}, !- Handle
  Node 2,                                 !- Name
  {c6040cb1-5822-46a2-a8a3-a2113583359c}, !- Inlet Port
  ;                                       !- Outlet Port

OS:Connection,
  {c6040cb1-5822-46a2-a8a3-a2113583359c}, !- Handle
  {5a9db7d2-50e7-4b9d-a24f-68dba34a7e24}, !- Name
  {a79c1cbc-96e5-4d9b-aa74-f6a13e8e99e4}, !- Source Object
  11,                                     !- Outlet Port
  {c171d4e3-6099-4b57-a3b8-1f29a7cdc8fb}, !- Target Object
  2;                                      !- Inlet Port

OS:PortList,
  {351df00d-9607-4626-8505-b1599577e5f0}, !- Handle
  {0b3f0c52-e97a-4be3-9f1f-a55e6bf0df2a}, !- Name
  {a79c1cbc-96e5-4d9b-aa74-f6a13e8e99e4}; !- HVAC Component

OS:PortList,
  {bbae1f49-c625-49b9-b170-0815b596dce4}, !- Handle
  {df165741-21d3-4961-ad5b-0a6078e92b03}, !- Name
  {a79c1cbc-96e5-4d9b-aa74-f6a13e8e99e4}; !- HVAC Component

OS:PortList,
  {73d71843-7143-441b-83a3-7f247a65a1bb}, !- Handle
  {a9a29ca3-5d90-4fce-b102-ea95c491af9a}, !- Name
  {a79c1cbc-96e5-4d9b-aa74-f6a13e8e99e4}; !- HVAC Component

OS:Sizing:Zone,
  {3cf40be0-f00d-4d61-9d6e-c6cbb6be6170}, !- Handle
  {a79c1cbc-96e5-4d9b-aa74-f6a13e8e99e4}, !- Zone or ZoneList Name
  SupplyAirTemperature,                   !- Zone Cooling Design Supply Air Temperature Input Method
  14,                                     !- Zone Cooling Design Supply Air Temperature {C}
  11.11,                                  !- Zone Cooling Design Supply Air Temperature Difference {deltaC}
  SupplyAirTemperature,                   !- Zone Heating Design Supply Air Temperature Input Method
  40,                                     !- Zone Heating Design Supply Air Temperature {C}
  11.11,                                  !- Zone Heating Design Supply Air Temperature Difference {deltaC}
  0.0085,                                 !- Zone Cooling Design Supply Air Humidity Ratio {kg-H2O/kg-air}
  0.008,                                  !- Zone Heating Design Supply Air Humidity Ratio {kg-H2O/kg-air}
  ,                                       !- Zone Heating Sizing Factor
  ,                                       !- Zone Cooling Sizing Factor
  DesignDay,                              !- Cooling Design Air Flow Method
  ,                                       !- Cooling Design Air Flow Rate {m3/s}
  ,                                       !- Cooling Minimum Air Flow per Zone Floor Area {m3/s-m2}
  ,                                       !- Cooling Minimum Air Flow {m3/s}
  ,                                       !- Cooling Minimum Air Flow Fraction
  DesignDay,                              !- Heating Design Air Flow Method
  ,                                       !- Heating Design Air Flow Rate {m3/s}
  ,                                       !- Heating Maximum Air Flow per Zone Floor Area {m3/s-m2}
  ,                                       !- Heating Maximum Air Flow {m3/s}
  ,                                       !- Heating Maximum Air Flow Fraction
  ,                                       !- Design Zone Air Distribution Effectiveness in Cooling Mode
  ,                                       !- Design Zone Air Distribution Effectiveness in Heating Mode
  No,                                     !- Account for Dedicated Outdoor Air System
  NeutralSupplyAir,                       !- Dedicated Outdoor Air System Control Strategy
  autosize,                               !- Dedicated Outdoor Air Low Setpoint Temperature for Design {C}
  autosize;                               !- Dedicated Outdoor Air High Setpoint Temperature for Design {C}

OS:ZoneHVAC:EquipmentList,
  {f1ae953a-6a08-4145-9cd2-2c8c88c3c826}, !- Handle
  Zone HVAC Equipment List 2,             !- Name
  {a79c1cbc-96e5-4d9b-aa74-f6a13e8e99e4}; !- Thermal Zone

OS:Rendering:Color,
  {1c0de51a-5120-43ec-93c0-b64a4fc550f4}, !- Handle
  Rendering Color 3,                      !- Name
  136,                                    !- Rendering Red Value
  204,                                    !- Rendering Green Value
  238,                                    !- Rendering Blue Value
  255;                                    !- Rendering Alpha Value

OS:WeatherFile,
  {b5618336-d988-46fb-9b8d-8bb272dc4e03}, !- Handle
  Chicago Ohare Intl Ap,                  !- City
  IL,                                     !- State Province Region
  USA,                                    !- Country
  TMY3,                                   !- Data Source
  725300,                                 !- WMO Number
  41.98,                                  !- Latitude {deg}
  -87.92,                                 !- Longitude {deg}
  -6,                                     !- Time Zone {hr}
  201,                                    !- Elevation {m}
  file:USA_IL_Chicago-OHare.Intl.AP.725300_TMY3 (1).epw, !- Url
  C254B53F;                               !- Checksum

OS:DefaultScheduleSet,
  {79ba1b09-7ffe-4797-a95d-3654b1088d1e}, !- Handle
  189.1-2009 - Office - WholeBuilding - Md Office - CZ4-8 Schedule Set, !- Name
  ,                                       !- Hours of Operation Schedule Name
  {1a58995e-1340-4b2a-8a7c-0f7d3b908226}, !- Number of People Schedule Name
  {5bf8996e-b4d8-4a4b-bcb9-e615572feef2}, !- People Activity Level Schedule Name
  {84898376-31f7-482d-b7f7-100166355bf4}, !- Lighting Schedule Name
  {d60dd475-1349-4f46-ba2c-32d7b364c1a1}, !- Electric Equipment Schedule Name
  ,                                       !- Gas Equipment Schedule Name
  ,                                       !- Hot Water Equipment Schedule Name
  {2a3b9fe9-75bd-4087-9b78-3af5763029aa}, !- Infiltration Schedule Name
  ,                                       !- Steam Equipment Schedule Name
  ;                                       !- Other Equipment Schedule Name

OS:Schedule:Ruleset,
  {1a58995e-1340-4b2a-8a7c-0f7d3b908226}, ! Handle
  Medium Office Bldg Occ,                 ! Name
  {c49c071c-2484-4364-8be2-9f0d9cf39b07}, ! Schedule Type Limits Name
  {f9406a18-a6d1-4da6-a91f-29478b676a2d}, ! Default Day Schedule Name
  {c76530a8-5af4-421e-b5d6-0ccb561d0878}, ! Summer Design Day Schedule Name
  {45366929-a7fe-422d-b069-7a4b83fbd268}; ! Winter Design Day Schedule Name

OS:Schedule:Day,
  {f9406a18-a6d1-4da6-a91f-29478b676a2d}, ! Handle
  Medium Office Bldg Occ Default Schedule, ! Name
  {c49c071c-2484-4364-8be2-9f0d9cf39b07}, ! Schedule Type Limits Name
  ,                                       ! Interpolate to Timestep
  6,                                      !- Hour 1
  0,                                      !- Minute 1
  0,                                      !- Value Until Time 1
  7,                                      !- Hour 2
  0,                                      !- Minute 2
  0.1,                                    !- Value Until Time 2
  8,                                      !- Hour 3
  0,                                      !- Minute 3
  0.2,                                    !- Value Until Time 3
  12,                                     !- Hour 4
  0,                                      !- Minute 4
  0.95,                                   !- Value Until Time 4
  13,                                     !- Hour 5
  0,                                      !- Minute 5
  0.5,                                    !- Value Until Time 5
  17,                                     !- Hour 6
  0,                                      !- Minute 6
  0.95,                                   !- Value Until Time 6
  18,                                     !- Hour 7
  0,                                      !- Minute 7
  0.7,                                    !- Value Until Time 7
  20,                                     !- Hour 8
  0,                                      !- Minute 8
  0.4,                                    !- Value Until Time 8
  22,                                     !- Hour 9
  0,                                      !- Minute 9
  0.1,                                    !- Value Until Time 9
  24,                                     !- Hour 10
  0,                                      !- Minute 10
  0.05;                                   !- Value Until Time 10

OS:Schedule:Day,
  {c76530a8-5af4-421e-b5d6-0ccb561d0878}, ! Handle
  Medium Office Bldg Occ Summer Design Day, ! Name
  {c49c071c-2484-4364-8be2-9f0d9cf39b07}, ! Schedule Type Limits Name
  ,                                       ! Interpolate to Timestep
  6,                                      ! Hour 1
  0,                                      ! Minute 1
  0,                                      ! Value Until Time 1
  22,                                     ! Hour 2
  0,                                      ! Minute 2
  1,                                      ! Value Until Time 2
  24,                                     ! Hour 3
  0,                                      ! Minute 3
  0.050000000000000003;                   ! Value Until Time 3

OS:Schedule:Day,
  {45366929-a7fe-422d-b069-7a4b83fbd268}, ! Handle
  Medium Office Bldg Occ Winter Design Day, ! Name
  {c49c071c-2484-4364-8be2-9f0d9cf39b07}, ! Schedule Type Limits Name
  ,                                       ! Interpolate to Timestep
  24,                                     ! Hour 1
  0,                                      ! Minute 1
  0;                                      ! Value Until Time 1

OS:Schedule:Rule,
  {cc6ec1af-0249-4c41-ab40-0e4687810a69}, ! Handle
  Medium Office Bldg Occ Rule 1,          ! Name
  {1a58995e-1340-4b2a-8a7c-0f7d3b908226}, ! Schedule Ruleset Name
  0,                                      ! Rule Order
  {1383eb19-ba64-424f-bb6c-6d87bb2f20c1}, ! Day Schedule Name
  Yes,                                    ! Apply Sunday
  No,                                     ! Apply Monday
  No,                                     ! Apply Tuesday
  No,                                     ! Apply Wednesday
  No,                                     ! Apply Thursday
  No,                                     ! Apply Friday
  No,                                     ! Apply Saturday
  ,                                       ! Apply Holiday
  DateRange,                              ! Date Specification Type
  1,                                      ! Start Month
  1,                                      ! Start Day
  12,                                     ! End Month
  31;                                     ! End Day

OS:Schedule:Rule,
  {76e3bacd-b191-4a7d-9113-71a57b6f07e4}, ! Handle
  Medium Office Bldg Occ Rule 2,          ! Name
  {1a58995e-1340-4b2a-8a7c-0f7d3b908226}, ! Schedule Ruleset Name
  1,                                      ! Rule Order
  {a3042e6f-a672-47a1-8b2f-e841e6657016}, ! Day Schedule Name
  No,                                     ! Apply Sunday
  No,                                     ! Apply Monday
  No,                                     ! Apply Tuesday
  No,                                     ! Apply Wednesday
  No,                                     ! Apply Thursday
  No,                                     ! Apply Friday
  Yes,                                    ! Apply Saturday
  ,                                       ! Apply Holiday
  DateRange,                              ! Date Specification Type
  1,                                      ! Start Month
  1,                                      ! Start Day
  12,                                     ! End Month
  31;                                     ! End Day

OS:Schedule:Day,
  {1383eb19-ba64-424f-bb6c-6d87bb2f20c1}, ! Handle
  Medium Office Bldg Occ Rule 1 Day Schedule, ! Name
  {c49c071c-2484-4364-8be2-9f0d9cf39b07}, ! Schedule Type Limits Name
  ,                                       ! Interpolate to Timestep
  24,                                     ! Hour 1
  0,                                      ! Minute 1
  0;                                      ! Value Until Time 1

OS:Schedule:Day,
  {a3042e6f-a672-47a1-8b2f-e841e6657016}, ! Handle
  Medium Office Bldg Occ Rule 2 Day Schedule, ! Name
  {c49c071c-2484-4364-8be2-9f0d9cf39b07}, ! Schedule Type Limits Name
  ,                                       ! Interpolate to Timestep
  6,                                      ! Hour 1
  0,                                      ! Minute 1
  0,                                      ! Value Until Time 1
  8,                                      ! Hour 2
  0,                                      ! Minute 2
  0.10000000000000001,                    ! Value Until Time 2
  14,                                     ! Hour 3
  0,                                      ! Minute 3
  0.5,                                    ! Value Until Time 3
  17,                                     ! Hour 4
  0,                                      ! Minute 4
  0.10000000000000001,                    ! Value Until Time 4
  24,                                     ! Hour 5
  0,                                      ! Minute 5
  0;                                      ! Value Until Time 5

OS:Schedule:Ruleset,
  {5bf8996e-b4d8-4a4b-bcb9-e615572feef2}, ! Handle
  Medium Office Activity,                 ! Name
  {f4346ee0-f7f3-43c6-ad44-dd5c1e9f3048}, ! Schedule Type Limits Name
  {8b15a33c-22d9-4128-82b9-e9fcff361522}, ! Default Day Schedule Name
  {d878b59a-2ba4-47ba-b522-b3b5889871fe}, ! Summer Design Day Schedule Name
  {a3078468-5fce-4160-9798-fd906b7b81b0}; ! Winter Design Day Schedule Name

OS:Schedule:Day,
  {8b15a33c-22d9-4128-82b9-e9fcff361522}, ! Handle
  Medium Office Activity Default Schedule, ! Name
  {f4346ee0-f7f3-43c6-ad44-dd5c1e9f3048}, ! Schedule Type Limits Name
  ,                                       ! Interpolate to Timestep
  24,                                     !- Hour 1
  0,                                      !- Minute 1
  120;                                    !- Value Until Time 1

OS:Schedule:Day,
  {d878b59a-2ba4-47ba-b522-b3b5889871fe}, ! Handle
  Medium Office Activity Summer Design Day, ! Name
  {f4346ee0-f7f3-43c6-ad44-dd5c1e9f3048}, ! Schedule Type Limits Name
  ,                                       ! Interpolate to Timestep
  24,                                     ! Hour 1
  0,                                      ! Minute 1
  120;                                    ! Value Until Time 1

OS:Schedule:Day,
  {a3078468-5fce-4160-9798-fd906b7b81b0}, ! Handle
  Medium Office Activity Winter Design Day, ! Name
  {f4346ee0-f7f3-43c6-ad44-dd5c1e9f3048}, ! Schedule Type Limits Name
  ,                                       ! Interpolate to Timestep
  24,                                     ! Hour 1
  0,                                      ! Minute 1
  120;                                    ! Value Until Time 1

OS:Schedule:Ruleset,
  {84898376-31f7-482d-b7f7-100166355bf4}, ! Handle
  Office Bldg Light,                      ! Name