!
!

  Version,8.1;

!-   ===========  ALL OBJECTS IN CLASS: SIMULATIONCONTROL ===========

  SimulationControl,
    Yes,                     !- Do Zone Sizing Calculation
    Yes,                     !- Do System Sizing Calculation
    Yes,                     !- Do Plant Sizing Calculation
    No,                      !- Run Simulation for Sizing Periods
    Yes;                     !- Run Simulation for Weather File Run Periods

!-   ===========  ALL OBJECTS IN CLASS: BUILDING ===========

  Building,
    Building,                !- Name
    45,                      !- North Axis {deg}
    City,                    !- Terrain
    0.04,                    !- Loads Convergence Tolerance Value
    0.4,                     !- Temperature Convergence Tolerance Value {deltaC}
    FullInteriorAndExterior, !- Solar Distribution
    25,                      !- Maximum Number of Warmup Days
    6;                       !- Minimum Number of Warmup Days

!-   ===========  ALL OBJECTS IN CLASS: SHADOWCALCULATION ===========

  ShadowCalculation,
    AverageOverDaysInFrequency,  !- Calculation Method
    7,                       !- Calculation Frequency
    15000;                   !- Maximum Figures in Shadow Overlap Calculations

!-   ===========  ALL OBJECTS IN CLASS: SURFACECONVECTIONALGORITHM:INSIDE ===========

  SurfaceConvectionAlgorithm:Inside,TARP;

!-   ===========  ALL OBJECTS IN CLASS: SURFACECONVECTIONALGORITHM:OUTSIDE ===========

  SurfaceConvectionAlgorithm:Outside,DOE-2;

!-   ===========  ALL OBJECTS IN CLASS: HEATBALANCEALGORITHM ===========

  HeatBalanceAlgorithm,ConductionTransferFunction,200.0000;

!-   ===========  ALL OBJECTS IN CLASS: ZONEAIRHEATBALANCEALGORITHM ===========

  ZoneAirHeatBalanceAlgorithm,
    AnalyticalSolution;      !- Algorithm

!-   ===========  ALL OBJECTS IN CLASS: TIMESTEP ===========

  Timestep,4;

  ConvergenceLimits,
    2,                       !- Minimum System Timestep {minutes}
    25;                      !- Maximum HVAC Iterations

!-   ===========  ALL OBJECTS IN CLASS: RUNPERIOD ===========

  RunPeriod,
    ,                        !- Name
    1,                       !- Begin Month
    1,                       !- Begin Day of Month
    12,                      !- End Month
    31,                      !- End Day of Month
    Monday,                  !- Day of Week for Start Day
    No,                      !- Use Weather File Holidays and Special Days
    No,                      !- Use Weather File Daylight Saving Period
    No,                      !- Apply Weekend Holiday Rule
    Yes,                     !- Use Weather File Rain Indicators
    Yes,                     !- Use Weather File Snow Indicators
    1.0000;                  !- Number of Times Runperiod to be Repeated

! Climate Zone CA_USA Annual Cooling (DB=>MWB) 1%

  SizingPeriod:DesignDay,
    Climate Zone 10 Ann Htg 99.6% Condns DB,  !- Name
    12,                      !- Month
    21,                      !- Day of Month
    WinterDesignDay,         !- Day Type
    1.2,                     !- Maximum Dry-Bulb Temperature {C}
    0.0,                     !- Daily Dry-Bulb Temperature Range {deltaC}
    DefaultMultipliers,      !- Dry-Bulb Temperature Range Modifier Type
    ,                        !- Dry-Bulb Temperature Range Modifier Day Schedule Name
    Wetbulb,                 !- Humidity Condition Type
    1.2,                     !- Wetbulb or DewPoint at Maximum Dry-Bulb {C}
    ,                        !- Humidity Condition Day Schedule Name
    ,                        !- Humidity Ratio at Maximum Dry-Bulb {kgWater/kgDryAir}
    ,                        !- Enthalpy at Maximum Dry-Bulb {J/kg}
    ,                        !- Daily Wet-Bulb Temperature Range {deltaC}
    95816.,                  !- Barometric Pressure {Pa}
    0.9,                     !- Wind Speed {m/s}
    300,                     !- Wind Direction {deg}
    No,                      !- Rain Indicator
    No,                      !- Snow Indicator
    No,                      !- Daylight Saving Time Indicator
    ASHRAEClearSky,          !- Solar Model Indicator
    ,                        !- Beam Solar Day Schedule Name
    ,                        !- Diffuse Solar Day Schedule Name
    ,                        !- ASHRAE Clear Sky Optical Depth for Beam Irradiance (taub) {dimensionless}
    ,                        !- ASHRAE Clear Sky Optical Depth for Diffuse Irradiance (taud) {dimensionless}
    0.00;                    !- Sky Clearness

  SizingPeriod:DesignDay,
    CZ_10_DDY,               !- Name
    8,                       !- Month
    21,                      !- Day of Month
    SummerDesignDay,         !- Day Type
    38.1,                    !- Maximum Dry-Bulb Temperature {C}
    16.6,                    !- Daily Dry-Bulb Temperature Range {deltaC}
    ,                        !- Dry-Bulb Temperature Range Modifier Type
    ,                        !- Dry-Bulb Temperature Range Modifier Day Schedule Name
    Wetbulb,                 !- Humidity Condition Type
    19.9,                    !- Wetbulb or DewPoint at Maximum Dry-Bulb {C}
    ,                        !- Humidity Condition Day Schedule Name
    ,                        !- Humidity Ratio at Maximum Dry-Bulb {kgWater/kgDryAir}
    ,                        !- Enthalpy at Maximum Dry-Bulb {J/kg}
    ,                        !- Daily Wet-Bulb Temperature Range {deltaC}
    95816,                   !- Barometric Pressure {Pa}
    4.2,                     !- Wind Speed {m/s}
    300,                     !- Wind Direction {deg}
    No,                      !- Rain Indicator
    No,                      !- Snow Indicator
    No,                      !- Daylight Saving Time Indicator
    ASHRAEClearSky,          !- Solar Model Indicator
    ,                        !- Beam Solar Day Schedule Name
    ,                        !- Diffuse Solar Day Schedule Name
    ,                        !- ASHRAE Clear Sky Optical Depth for Beam Irradiance (taub) {dimensionless}
    ,                        !- ASHRAE Clear Sky Optical Depth for Diffuse Irradiance (taud) {dimensionless}
    1.00;                    !- Sky Clearness

!-   ===========  ALL OBJECTS IN CLASS: SITE:LOCATION ===========

  Site:Location,
    Climate_Zone_10_CA_USA_CTZRV2,  !- Name
    33.88,                   !- Latitude {deg}
    -117.27,                 !- Longitude {deg}
    -8.0,                    !- Time Zone {hr}
    469.0;                   !- Elevation {m}

!-   ===========  ALL OBJECTS IN CLASS: SITE:GROUNDTEMPERATURE:BUILDINGSURFACE ===========

  Site:GroundTemperature:BuildingSurface,20.03,20.03,20.13,20.30,20.43,20.52,20.62,20.77,20.78,20.55,20.44,20.20;

!-   ===========  ALL OBJECTS IN CLASS: MATERIAL ===========

  Material,
    Roof Membrane,           !- Name
    VeryRough,               !- Roughness
    0.0095,                  !- Thickness {m}
    0.1600,                  !- Conductivity {W/m-K}
    1121.2900,               !- Density {kg/m3}
    1460.0000,               !- Specific Heat {J/kg-K}
    0.9000,                  !- Thermal Absorptance
    0.7000,                  !- Solar Absorptance
    0.7000;                  !- Visible Absorptance

  Material,
    Roof Insulation,         !- Name
    MediumRough,             !- Roughness
    0.12988,                 !- Thickness {m}
    0.0490,                  !- Conductivity {W/m-K}
    265.0000,                !- Density {kg/m3}
    836.8000,                !- Specific Heat {J/kg-K}
    0.9000,                  !- Thermal Absorptance
    0.7000,                  !- Solar Absorptance
    0.7000;                  !- Visible Absorptance

  Material,
    Metal Decking,           !- Name
    MediumSmooth,            !- Roughness
    0.0015,                  !- Thickness {m}
    45.0060,                 !- Conductivity {W/m-K}
    7680.0000,               !- Density {kg/m3}
    418.4000,                !- Specific Heat {J/kg-K}
    0.9000,                  !- Thermal Absorptance
    0.7000,                  !- Solar Absorptance
    0.3000;                  !- Visible Absorptance

  Material,
    GP01 1/2 GYPSUM,         !- Name
    Smooth,                  !- Roughness
    0.0127,                  !- Thickness {m}
    0.1600,                  !- Conductivity {W/m-K}
    800.0000,                !- Density {kg/m3}
    1090.0000,               !- Specific Heat {J/kg-K}
    0.9000,                  !- Thermal Absorptance
    0.7000,                  !- Solar Absorptance
    0.5000;                  !- Visible Absorptance

  Material,
    Wall Insulation [1],     !- Name
    MediumRough,             !- Roughness
    0.05020,                 !- Thickness {m}
    0.0450,                  !- Conductivity {W/m-K}
    265.0000,                !- Density {kg/m3}
    836.8000,                !- Specific Heat {J/kg-K}
    0.9000,                  !- Thermal Absorptance
    0.7000,                  !- Solar Absorptance
    0.7000;                  !- Visible Absorptance

  Material,
    Wall Insulation [2],     !- Name
    MediumRough,             !- Roughness
    0.11018,                 !- Thickness {m}
    0.0450,                  !- Conductivity {W/m-K}
    265.0000,                !- Density {kg/m3}
    836.8000,                !- Specific Heat {J/kg-K}
    0.9000,                  !- Thermal Absorptance
    0.7000,                  !- Solar Absorptance
    0.7000;                  !- Visible Absorptance

  Material,
    Wall Insulation [3],     !- Name
    MediumRough,             !- Roughness
    0.11900,                 !- Thickness {m}
    0.0450,                  !- Conductivity {W/m-K}
    265.0000,                !- Density {kg/m3}
    836.8000,                !- Specific Heat {J/kg-K}
    0.9000,                  !- Thermal Absorptance
    0.7000,                  !- Solar Absorptance
    0.7000;                  !- Visible Absorptance

  Material,
    1/2IN Gypsum,            !- Name
    Smooth,                  !- Roughness
    0.0127,                  !- Thickness {m}
    0.1600,                  !- Conductivity {W/m-K}
    784.9000,                !- Density {kg/m3}
    830.0000,                !- Specific Heat {J/kg-K}
    0.9000,                  !- Thermal Absorptance
    0.9200,                  !- Solar Absorptance
    0.9200;                  !- Visible Absorptance

  Material,
    MAT-CC05 8 HW CONCRETE,  !- Name
    Rough,                   !- Roughness
    0.2032,                  !- Thickness {m}
    1.3110,                  !- Conductivity {W/m-K}
    2240.0000,               !- Density {kg/m3}
    836.8000,                !- Specific Heat {J/kg-K}
    0.9000,                  !- Thermal Absorptance
    0.7000,                  !- Solar Absorptance
    0.7000;                  !- Visible Absorptance

  Material,
    Floor Insulation [1],    !- Name
    MediumRough,             !- Roughness
    0.0464,                  !- Thickness {m}
    0.0450,                  !- Conductivity {W/m-K}
    265.0000,                !- Density {kg/m3}
    836.8000,                !- Specific Heat {J/kg-K}
    0.9000,                  !- Thermal Absorptance
    0.7000,                  !- Solar Absorptance
    0.7000;                  !- Visible Absorptance

  Material,
    Std Wood 6inch,          !- Name
    MediumSmooth,            !- Roughness
    0.15,                    !- Thickness {m}
    0.12,                    !- Conductivity {W/m-K}
    540.0000,                !- Density {kg/m3}
    1210,                    !- Specific Heat {J/kg-K}
    0.9000000,               !- Thermal Absorptance
    0.7000000,               !- Solar Absorptance
    0.7000000;               !- Visible Absorptance

  Material,
    Std 1.5  MW CONCRETE,    !- Name
    Rough,                   !- Roughness
    0.038,                   !- Thickness {m}
    0.858,                   !- Conductivity {W/m-K}
    1968,                    !- Density {kg/m3}
    836.8,                   !- Specific Heat {J/kg-K}
    0.9,                     !- Thermal Absorptance
    0.7,                     !- Solar Absorptance
    0.7;                     !- Visible Absorptance

  Material,
    Std AC02,                !- Name
    MediumSmooth,            !- Roughness
    1.2700000E-02,           !- Thickness {m}
    5.7000000E-02,           !- Conductivity {W/m-K}
    288.0000,                !- Density {kg/m3}
    1339.000,                !- Specific Heat {J/kg-K}
    0.9000000,               !- Thermal Absorptance
    0.7000000,               !- Solar Absorptance
    0.2000000;               !- Visible Absorptance

  Material,
    Std MAT-CC05 4  MW CONCRETE,  !- Name
    Rough,                   !- Roughness
    0.1000,                  !- Thickness {m}
    0.858,                   !- Conductivity {W/m-K}
    1968,                    !- Density {kg/m3}
    836.8,                   !- Specific Heat {J/kg-K}
    0.9,                     !- Thermal Absorptance
    0.7,                     !- Solar Absorptance
    0.2;                     !- Visible Absorptance

  Material,
    Std Very High Reflectivity Surface,  !- Name
    Smooth,                  !- Roughness
    0.0005,                  !- Thickness {m}
    237,                     !- Conductivity {W/m-K}
    2702,                    !- Density {kg/m3}
    903,                     !- Specific Heat {J/kg-K}
    0.90,                    !- Thermal Absorptance
    0.05,                    !- Solar Absorptance
    0.05;                    !- Visible Absorptance

  Material,
    Std PW05,                !- Name
    MediumSmooth,            !- Roughness
    1.9099999E-02,           !- Thickness {m}
    0.1150000,               !- Conductivity {W/m-K}
    545.0000,                !- Density {kg/m3}
    1213.000,                !- Specific Heat {J/kg-K}
    0.9000000,               !- Thermal Absorptance
    0.7800000,               !- Solar Absorptance
    0.7800000;               !- Visible Absorptance

  Material,
    Std Steel_Brown_Regular, !- Name
    Smooth,                  !- Roughness
    1.5000000E-03,           !- Thickness {m}
    44.96960,                !- Conductivity {W/m-K}
    7689.000,                !- Density {kg/m3}
    418.0000,                !- Specific Heat {J/kg-K}
    0.9000000,               !- Thermal Absorptance
    0.9200000,               !- Solar Absorptance
    0.92000000;              !- Visible Absorptance

  Material,
    Std Steel_Brown_Cool,    !- Name
    Smooth,                  !- Roughness
    1.5000000E-03,           !- Thickness {m}
    44.96960,                !- Conductivity {W/m-K}
    7689.000,                !- Density {kg/m3}
    418.0000,                !- Specific Heat {J/kg-K}
    0.9000000,               !- Thermal Absorptance
    0.7300000,               !- Solar Absorptance
    0.73000000;              !- Visible Absorptance

  Material,
    PW05_Plywood3/4_in,      !- Name
    MediumSmooth,            !- Roughness
    0.0191,                  !- Thickness {m}
    0.1150,                  !- Conductivity {W/m-K}
    545.0000,                !- Density {kg/m3}
    1213.0000,               !- Specific Heat {J/kg-K}
    0.9000,                  !- Thermal Absorptance
    0.7000,                  !- Solar Absorptance
    0.7800;                  !- Visible Absorptance

!  ====== Materials added ================== Canada Building Code
!

  Material,
    GL-1,                    !- Name
    MediumSmooth,            !- Roughness
    0.01524,                 !- Thickness {m}
    0.031158,                !- Conductivity {W/m-K}
    2755.174,                !- Density {kg/m3}
    836.8,                   !- Specific Heat {J/kg-K}
    0.9000,                  !- Thermal Absorptance
    0.7000,                  !- Solar Absorptance
    0.7000;                  !- Visible Absorptance

!

  Material,
    GL-1VH,                  !- Name
    MediumSmooth,            !- Roughness
    0.00634,                 !- Thickness {m}
    1.02129,                 !- Conductivity {W/m-K}
    2755.174,                !- Density {kg/m3}
    836.8,                   !- Specific Heat {J/kg-K}
    0.9000,                  !- Thermal Absorptance
    0.7000,                  !- Solar Absorptance
    0.7000;                  !- Visible Absorptance

!

  Material,
    CB03,                    !- Name
    Rough,                   !- Roughness
    0.10159,                 !- Thickness {m}
    0.519473,                !- Conductivity {W/m-K}
    1649.901,                !- Density {kg/m3}
    836.8,                   !- Specific Heat {J/kg-K}
    0.9000,                  !- Thermal Absorptance
    0.7000,                  !- Solar Absorptance
    0.7000;                  !- Visible Absorptance

!

  Material,
    CB24,                    !- Name
    VeryRough,               !- Roughness
    0.10159,                 !- Thickness {m}
    0.572269,                !- Conductivity {W/m-K}
    1425.642,                !- Density {kg/m3}
    836.8,                   !- Specific Heat {J/kg-K}
    0.9000,                  !- Thermal Absorptance
    0.7000,                  !- Solar Absorptance
    0.7000;                  !- Visible Absorptance

!

  Material,
    IN01,                    !- Name
    VeryRough,               !- Roughness
    0.057363,                !- Thickness {m}
    0.043275,                !- Conductivity {W/m-K}
    9.611072,                !- Density {kg/m3}
    836.8,                   !- Specific Heat {J/kg-K}
    0.9000,                  !- Thermal Absorptance
    0.7000,                  !- Solar Absorptance
    0.7000;                  !- Visible Absorptance

!

  Material,
    IN02,                    !- Name
    VeryRough,               !- Roughness
    0.090129,                !- Thickness {m}
    0.043275,                !- Conductivity {W/m-K}
    9.611072,                !- Density {kg/m3}
    836.8,                   !- Specific Heat {J/kg-K}
    0.9000,                  !- Thermal Absorptance
    0.7000,                  !- Solar Absorptance
    0.7000;                  !- Visible Absorptance

!

  Material,
    IN74,                    !- Name
    VeryRough,               !- Roughness
    0.05081,                 !- Thickness {m}
    0.05193,                 !- Conductivity {W/m-K}
    256.2953,                !- Density {kg/m3}
    836.8,                   !- Specific Heat {J/kg-K}
    0.9000,                  !- Thermal Absorptance
    0.7000,                  !- Solar Absorptance
    0.7000;                  !- Visible Absorptance

!

  Material,
    IN76,                    !- Name
    VeryRough,               !- Roughness
    0.0762,                  !- Thickness {m}
    0.05193,                 !- Conductivity {W/m-K}
    256.2953,                !- Density {kg/m3}
    836.8,                   !- Specific Heat {J/kg-K}
    0.9000,                  !- Thermal Absorptance
    0.7000,                  !- Solar Absorptance
    0.7000;                  !- Visible Absorptance

!

  Material,
    RF1,                     !- Name
    VeryRough,               !- Roughness
    0.027432,                !- Thickness {m}
    0.025965,                !- Conductivity {W/m-K}
    2755.174,                !- Density {kg/m3}
    836.8,                   !- Specific Heat {J/kg-K}
    0.9000,                  !- Thermal Absorptance
    0.7000,                  !- Solar Absorptance
    0.7000;                  !- Visible Absorptance

!

  Material,
    PW01,                    !- Name
    MediumSmooth,            !- Roughness
    0.00637,                 !- Thickness {m}
    0.115458,                !- Conductivity {W/m-K}
    544.6274,                !- Density {kg/m3}
    1213.36,                 !- Specific Heat {J/kg-K}
    0.9000,                  !- Thermal Absorptance
    0.7000,                  !- Solar Absorptance
    0.7000;                  !- Visible Absorptance

!

  Material,
    PW04,                    !- Name
    MediumSmooth,            !- Roughness
    0.01558,                 !- Thickness {m}
    0.115458,                !- Conductivity {W/m-K}
    544.6274,                !- Density {kg/m3}
    1213.36,                 !- Specific Heat {J/kg-K}
    0.9000,                  !- Thermal Absorptance
    0.7000,                  !- Solar Absorptance
    0.7000;                  !- Visible Absorptance

!

  Material,
    PW05,                    !- Name
    MediumSmooth,            !- Roughness
    0.01905,                 !- Thickness {m}
    0.115458,                !- Conductivity {W/m-K}
    544.6274,                !- Density {kg/m3}
    1213.36,                 !- Specific Heat {J/kg-K}
    0.9000,                  !- Thermal Absorptance
    0.7000,                  !- Solar Absorptance
    0.7000;                  !- Visible Absorptance

!

  Material,
    PW06,                    !- Name
    MediumSmooth,            !- Roughness
    0.02539,                 !- Thickness {m}
    0.115458,                !- Conductivity {W/m-K}
    544.6274,                !- Density {kg/m3}
    1213.36,                 !- Specific Heat {J/kg-K}
    0.9000,                  !- Thermal Absorptance
    0.7000,                  !- Solar Absorptance
    0.7000;                  !- Visible Absorptance

!

  Material,
    GP02,                    !- Name
    MediumSmooth,            !- Roughness
    0.01588,                 !- Thickness {m}
    0.160291,                !- Conductivity {W/m-K}
    800.9227,                !- Density {kg/m3}
    836.8,                   !- Specific Heat {J/kg-K}
    0.9000,                  !- Thermal Absorptance
    0.7000,                  !- Solar Absorptance
    0.7000;                  !- Visible Absorptance

!

  Material,
    CC03,                    !- Name
    MediumSmooth,            !- Roughness
    0.050801,                !- Thickness {m}
    1.311406,                !- Conductivity {W/m-K}
    2242.583,                !- Density {kg/m3}
    836.8000,                !- Specific Heat {J/kg-K}
    0.9000,                  !- Thermal Absorptance
    0.7000,                  !- Solar Absorptance
    0.7000;                  !- Visible Absorptance

!

  Material,
    IN21,                    !- Name
    MediumRough,             !- Roughness
    0.02222,                 !- Thickness {m}
    0.041544,                !- Conductivity {W/m-K}
    240.2768,                !- Density {kg/m3}
    711.28,                  !- Specific Heat {J/kg-K}
    0.9000,                  !- Thermal Absorptance
    0.7000,                  !- Solar Absorptance
    0.7000;                  !- Visible Absorptance

!

  Material,
    IN22,                    !- Name
    MediumRough,             !- Roughness
    0.02539,                 !- Thickness {m}
    0.041544,                !- Conductivity {W/m-K}
    240.2768,                !- Density {kg/m3}
    711.28,                  !- Specific Heat {J/kg-K}
    0.9000,                  !- Thermal Absorptance
    0.7000,                  !- Solar Absorptance
    0.7000;                  !- Visible Absorptance

!

  Material,
    IN31,                    !- Name
    MediumRough,             !- Roughness
    0.01271,                 !- Thickness {m}
    0.02462,                 !- Conductivity {W/m-K}
    28.82,                   !- Density {kg/m3}
    1213.36,                 !- Specific Heat {J/kg-K}
    0.9000,                  !- Thermal Absorptance
    0.7000,                  !- Solar Absorptance
    0.7000;                  !- Visible Absorptance

!

  Material,
    IN45,                    !- Name
    MediumRough,             !- Roughness
    0.05081,                 !- Thickness {m}
    0.023022,                !- Conductivity {W/m-K}
    24.02768,                !- Density {kg/m3}
    1589.920000,             !- Specific Heat {J/kg-K}
    0.9000,                  !- Thermal Absorptance
    0.7000,                  !- Solar Absorptance
    0.7000;                  !- Visible Absorptance

!

  Material,
    CC24,                    !- Name
    MediumSmooth,            !- Roughness
    0.10159,                 !- Thickness {m}
    0.360567,                !- Conductivity {W/m-K}
    1281.576,                !- Density {kg/m3}
    836.8,                   !- Specific Heat {J/kg-K}
    0.9000,                  !- Thermal Absorptance
    0.7000,                  !- Solar Absorptance
    0.7000;                  !- Visible Absorptance

!-   ===========  ALL OBJECTS IN CLASS: MATERIAL:NOMASS ===========California

  Material:NoMass,
    MAT-SHEATH,              !- Name
    Rough,                   !- Roughness
    0.3626,                  !- Thermal Resistance {m2-K/W}
    0.9000,                  !- Thermal Absorptance
    0.7000,                  !- Solar Absorptance
    0.7000;                  !- Visible Absorptance

  Material:NoMass,
    CP02 CARPET PAD,         !- Name
    VeryRough,               !- Roughness
    0.2165,                  !- Thermal Resistance {m2-K/W}
    0.9000,                  !- Thermal Absorptance
    0.7000,                  !- Solar Absorptance
    0.8000;                  !- Visible Absorptance

  Material:NoMass,
    Std CP02 CARPET PAD,     !- Name
    VeryRough,               !- Roughness
    0.21648,                 !- Thermal Resistance {m2-K/W}
    0.9,                     !- Thermal Absorptance
    0.7,                     !- Solar Absorptance
    0.8;                     !- Visible Absorptance

  Material:NoMass,
    MAT-AIR-WALL,            !- Name
    Rough,                   !- Roughness
    0.2079491,               !- Thermal Resistance {m2-K/W}
    0.9,                     !- Thermal Absorptance
    0.7;                     !- Solar Absorptance

  Material:NoMass,
    Std Opaque Door panel_con,  !- Name
    MediumRough,             !- Roughness
    0.12327,                 !- Thermal Resistance {m2-K/W}
    0.9,                     !- Thermal Absorptance
    0.7,                     !- Solar Absorptance
    0.7;                     !- Visible Absorptance

  Material:NoMass,
    Std Opaque Door panel_semi,  !- Name
    MediumRough,             !- Roughness
    0.12327,                 !- Thermal Resistance {m2-K/W}
    0.9,                     !- Thermal Absorptance
    0.7,                     !- Solar Absorptance
    0.7;                     !- Visible Absorptance

  Material:NoMass,
    Std Overhead Door Panel, !- Name
    MediumRough,             !- Roughness
    0.255345,                !- Thermal Resistance {m2-K/W}
    0.9,                     !- Thermal Absorptance
    0.7,                     !- Solar Absorptance
    0.7;                     !- Visible Absorptance

!-   ===========  ALL OBJECTS IN CLASS: MATERIAL:NOMASS ===========Canada
!

  Material:NoMass,
    CP01,                    !- Name
    VeryRough,               !- Roughness
    0.36608,                 !- Thermal Resistance {m2-K/W}
    0.9000,                  !- Thermal Absorptance
    0.7000,                  !- Solar Absorptance
    0.8000;                  !- Visible Absorptance

  Material:NoMass,
    AL12,                    !- Name
    VeryRough,               !- Roughness
    0.14784,                 !- Thermal Resistance {m2-K/W}
    0.9000,                  !- Thermal Absorptance
    0.7000,                  !- Solar Absorptance
    0.8000;                  !- Visible Absorptance

  Material:NoMass,
    AL11,                    !- Name
    VeryRough,               !- Roughness
    0.1584,                  !- Thermal Resistance {m2-K/W}
    0.9000,                  !- Thermal Absorptance
    0.7000,                  !- Solar Absorptance
    0.8000;                  !- Visible Absorptance

  Material:NoMass,
    AL31,                    !- Name
    VeryRough,               !- Roughness
    0.16192,                 !- Thermal Resistance {m2-K/W}
    0.9000,                  !- Thermal Absorptance
    0.7000,                  !- Solar Absorptance
    0.8000;                  !- Visible Absorptance

!

  WindowMaterial:Gas,
    AIR 13MM,                !- Name
    Air,                     !- Gas Type
    0.0127;                  !- Thickness {m}

!

  WindowMaterial:Gas,
    AIR 6MM,                 !- Name
    Air,                     !- Gas Type
    0.0063;                  !- Thickness {m}

!-   ===========  ALL OBJECTS IN CLASS: WINDOWMATERIAL:GLAZING ===========
!

  WindowMaterial:Glazing,
    CLEAR 3MM,               !- Name
    SpectralAverage,         !- Optical Data Type
    ,                        !- Window Glass Spectral Data Set Name
    .003,                    !- Thickness {m}
    .837,                    !- Solar Transmittance at Normal Incidence
    .075,                    !- Front Side Solar Reflectance at Normal Incidence
    .075,                    !- Back Side Solar Reflectance at Normal Incidence
    .898,                    !- Visible Transmittance at Normal Incidence
    .081,                    !- Front Side Visible Reflectance at Normal Incidence
    .081,                    !- Back Side Visible Reflectance at Normal Incidence
    .0,                      !- Infrared Transmittance at Normal Incidence
    .84,                     !- Front Side Infrared Hemispherical Emissivity
    .84,                     !- Back Side Infrared Hemispherical Emissivity