
OS:Version,
  {4768d62a-6325-4597-bec9-86b235b72347}, !- Handle
  2.8.1;                                  !- Version Identifier

OS:Site,
  {a9a87872-c213-4395-95ba-83f52e9dc6e2}, !- Handle
  Chicago Ohare Intl Ap,                  !- Name
  41.98,                                  !- Latitude {deg}
  -87.92,                                 !- Longitude {deg}
  -6,                                     !- Time Zone {hr}
  201,                                    !- Elevation {m}
  ;                                       !- Terrain

OS:YearDescription,
  {6878c1dc-2ccb-4e09-9e05-35cb9ff3fe16}, !- Handle
  ,                                       !- Calendar Year
  Sunday;                                 !- Day of Week for Start Day

OS:ClimateZones,
  {1fe5f5bc-16c6-49b1-bd20-374a579133c1}, !- Handle
  ,                                       !- Active Institution
  ,                                       !- Active Year
  ,                                       !- Climate Zone Institution Name 1
  ,                                       !- Climate Zone Document Name 1
  ,                                       !- Climate Zone Document Year 1
  ,                                       !- Climate Zone Value 1
  CEC,                                    !- Climate Zone Institution Name 2
  California Climate Zone Descriptions,   !- Climate Zone Document Name 2
  1995,                                   !- Climate Zone Document Year 2
  ;                                       !- Climate Zone Value 2

OS:Building,
  {4c06b976-57e7-4be0-b948-98cc5bc122b9}, !- Handle
  Building 1,                             !- Name
  ,                                       !- Building Sector Type
  ,                                       !- North Axis {deg}
  ,                                       !- Nominal Floor to Floor Height {m}
  ,                                       !- Space Type Name
  ,                                       !- Default Construction Set Name
  ,                                       !- Default Schedule Set Name
  ,                                       !- Standards Number of Stories
  ,                                       !- Standards Number of Above Ground Stories
  ,                                       !- Standards Template
  ,                                       !- Standards Building Type
  ,                                       !- Standards Number of Living Units
  ,                                       !- Relocatable
  ;                                       !- Nominal Floor to Ceiling Height {m}

OS:Facility,
  {c9861435-50c0-4028-9a62-9b48be858212}; !- Handle

OS:SimulationControl,
  {fd43af8c-568f-4d20-8983-089c75ebcada}; !- Handle

OS:Sizing:Parameters,
  {724b5d68-7427-4bd3-b5d3-60e3a6d1b827}, !- Handle
  1.25,                                   !- Heating Sizing Factor
  1.15;                                   !- Cooling Sizing Factor

OS:Timestep,
  {3c04c207-b4b8-4446-b117-d370d051fe27}, !- Handle
  6;                                      !- Number of Timesteps per Hour

OS:ShadowCalculation,
  {07edcb67-cd81-4618-bbb0-207cb372d6da}, !- Handle
  20,                                     !- Calculation Frequency
  15000;                                  !- Maximum Figures in Shadow Overlap Calculations

OS:HeatBalanceAlgorithm,
  {a81ad160-d837-4af8-906d-d65c0622f323}, !- Handle
  ConductionTransferFunction,             !- Algorithm
  200;                                    !- Surface Temperature Upper Limit {C}

OS:RunPeriod,
  {abdd305c-3e27-46a8-8e7f-457e14e0b4f6}, !- Handle
  Run Period 1,                           !- Name
  1,                                      !- Begin Month
  1,                                      !- Begin Day of Month
  12,                                     !- End Month
  31,                                     !- End Day of Month
  ,                                       !- Use Weather File Holidays and Special Days
  ,                                       !- Use Weather File Daylight Saving Period
  ,                                       !- Apply Weekend Holiday Rule
  ,                                       !- Use Weather File Rain Indicators
  ,                                       !- Use Weather File Snow Indicators
  ;                                       !- Number of Times Runperiod to be Repeated

OS:LifeCycleCost:Parameters,
  {87bdbb1a-b9fc-43d8-bde9-7d696304b8ea}, !- Handle
  FEMP,                                   !- Analysis Type
  ,                                       !- Discounting Convention
  ,                                       !- Inflation Approach
  ,                                       !- Real Discount Rate
  ,                                       !- Nominal Discount Rate
  ,                                       !- Inflation
  ,                                       !- Base Date Month
  ,                                       !- Base Date Year
  ,                                       !- Service Date Month
  ,                                       !- Service Date Year
  ,                                       !- Length of Study Period in Years
  ,                                       !- Tax Rate
  ,                                       !- Depreciation Method
  Yes,                                    !- Use NIST Fuel Escalation Rates
  ,                                       !- NIST Region
  ,                                       !- NIST Sector
  ,                                       !- Electricity Inflation
  ,                                       !- NaturalGas Inflation
  ,                                       !- Steam Inflation
  ,                                       !- Gasoline Inflation
  ,                                       !- Diesel Inflation
  ,                                       !- Coal Inflation
  ,                                       !- FuelOil1 Inflation
  ,                                       !- FuelOil2 Inflation
  ,                                       !- Propane Inflation
  ;                                       !- Water Inflation

OS:Space,
  {2daf362a-942c-4546-aacb-7d494c54799a}, !- Handle
  Space 1 - 2,                            !- Name
  {82cdc383-54a7-4340-bc13-fda2c29619db}, !- Space Type Name
  {2c723c23-e052-42af-bdcd-fc6babed2ed4}, !- Default Construction Set Name
  {31909f9c-a770-4ded-8e06-1ccbc1830516}, !- Default Schedule Set Name
  -0,                                     !- Direction of Relative North {deg}
  0,                                      !- X Origin {m}
  0,                                      !- Y Origin {m}
  0,                                      !- Z Origin {m}
  {d0d8a81b-9cb4-4eae-9df8-0a77c05d4192}, !- Building Story Name
  {2b7e2e49-161f-46cd-a9f2-c907f25b3743}, !- Thermal Zone Name
  ,                                       !- Part of Total Floor Area
  ,                                       !- Design Specification Outdoor Air Object Name
  ;                                       !- Building Unit Name

OS:Surface,
  {b13515d9-9156-402f-93e6-2e3a861b13af}, !- Handle
  Face 7,                                 !- Name
  RoofCeiling,                            !- Surface Type
  ,                                       !- Construction Name
  {2daf362a-942c-4546-aacb-7d494c54799a}, !- Space Name
  Outdoors,                               !- Outside Boundary Condition
  ,                                       !- Outside Boundary Condition Object
  SunExposed,                             !- Sun Exposure
  WindExposed,                            !- Wind Exposure
  ,                                       !- View Factor to Ground
  ,                                       !- Number of Vertices
  22.86, -39.624, 4.572,                  !- X,Y,Z Vertex 1 {m}
  22.86, -15.24, 4.572,                   !- X,Y,Z Vertex 2 {m}
  -1.524, -15.24, 4.572,                  !- X,Y,Z Vertex 3 {m}
  -1.524, -39.624, 4.572;                 !- X,Y,Z Vertex 4 {m}

OS:Surface,
  {c4b1046c-757f-458a-b031-b59b59357a43}, !- Handle
  Face 9,                                 !- Name
  Wall,                                   !- Surface Type
  ,                                       !- Construction Name
  {2daf362a-942c-4546-aacb-7d494c54799a}, !- Space Name
  Outdoors,                               !- Outside Boundary Condition
  ,                                       !- Outside Boundary Condition Object
  SunExposed,                             !- Sun Exposure
  WindExposed,                            !- Wind Exposure
  ,                                       !- View Factor to Ground
  ,                                       !- Number of Vertices
  -1.524, -39.624, 4.572,                 !- X,Y,Z Vertex 1 {m}
  -1.524, -39.624, 0,                     !- X,Y,Z Vertex 2 {m}
  22.86, -39.624, 0,                      !- X,Y,Z Vertex 3 {m}
  22.86, -39.624, 4.572;                  !- X,Y,Z Vertex 4 {m}

OS:Surface,
  {fc860a13-d145-4abf-a1fb-f84c0e8de5a0}, !- Handle
  Face 8,                                 !- Name
  Wall,                                   !- Surface Type
  ,                                       !- Construction Name
  {2daf362a-942c-4546-aacb-7d494c54799a}, !- Space Name
  Outdoors,                               !- Outside Boundary Condition
  ,                                       !- Outside Boundary Condition Object
  SunExposed,                             !- Sun Exposure
  WindExposed,                            !- Wind Exposure
  ,                                       !- View Factor to Ground
  ,                                       !- Number of Vertices
  22.86, -39.624, 4.572,                  !- X,Y,Z Vertex 1 {m}
  22.86, -39.624, 0,                      !- X,Y,Z Vertex 2 {m}
  22.86, -15.24, 0,                       !- X,Y,Z Vertex 3 {m}
  22.86, -15.24, 4.572;                   !- X,Y,Z Vertex 4 {m}

OS:Surface,
  {96e132bc-eedd-4877-ac0a-9be38a0ab6e7}, !- Handle
  Face 10,                                !- Name
  Wall,                                   !- Surface Type
  ,                                       !- Construction Name
  {2daf362a-942c-4546-aacb-7d494c54799a}, !- Space Name
  Outdoors,                               !- Outside Boundary Condition
  ,                                       !- Outside Boundary Condition Object
  SunExposed,                             !- Sun Exposure
  WindExposed,                            !- Wind Exposure
  ,                                       !- View Factor to Ground
  ,                                       !- Number of Vertices
  -1.524, -15.24, 4.572,                  !- X,Y,Z Vertex 1 {m}
  -1.524, -15.24, 0,                      !- X,Y,Z Vertex 2 {m}
  -1.524, -39.624, 0,                     !- X,Y,Z Vertex 3 {m}
  -1.524, -39.624, 4.572;                 !- X,Y,Z Vertex 4 {m}

OS:Surface,
  {a1f8be09-d643-4a97-9118-d2d1bf474fdd}, !- Handle
  Face 11,                                !- Name
  Wall,                                   !- Surface Type
  ,                                       !- Construction Name
  {2daf362a-942c-4546-aacb-7d494c54799a}, !- Space Name
  Outdoors,                               !- Outside Boundary Condition
  ,                                       !- Outside Boundary Condition Object
  SunExposed,                             !- Sun Exposure
  WindExposed,                            !- Wind Exposure
  ,                                       !- View Factor to Ground
  ,                                       !- Number of Vertices
  22.86, -15.24, 4.572,                   !- X,Y,Z Vertex 1 {m}
  22.86, -15.24, 0,                       !- X,Y,Z Vertex 2 {m}
  -1.524, -15.24, 0,                      !- X,Y,Z Vertex 3 {m}
  -1.524, -15.24, 4.572;                  !- X,Y,Z Vertex 4 {m}

OS:Surface,
  {65ee2c48-03a9-4841-acbf-ffc0c459e61c}, !- Handle
  Face 6,                                 !- Name
  Floor,                                  !- Surface Type
  ,                                       !- Construction Name
  {2daf362a-942c-4546-aacb-7d494c54799a}, !- Space Name
  Ground,                                 !- Outside Boundary Condition
  ,                                       !- Outside Boundary Condition Object
  NoSun,                                  !- Sun Exposure
  NoWind,                                 !- Wind Exposure
  ,                                       !- View Factor to Ground
  ,                                       !- Number of Vertices
  22.86, -15.24, 0,                       !- X,Y,Z Vertex 1 {m}
  22.86, -39.624, 0,                      !- X,Y,Z Vertex 2 {m}
  -1.524, -39.624, 0,                     !- X,Y,Z Vertex 3 {m}
  -1.524, -15.24, 0;                      !- X,Y,Z Vertex 4 {m}

OS:ThermalZone,
  {2b7e2e49-161f-46cd-a9f2-c907f25b3743}, !- Handle
  Thermal Zone 2,                         !- Name
  1,                                      !- Multiplier
  ,                                       !- Ceiling Height {m}
  ,                                       !- Volume {m3}
  ,                                       !- Floor Area {m2}
  ,                                       !- Zone Inside Convection Algorithm
  ,                                       !- Zone Outside Convection Algorithm
  ,                                       !- Zone Conditioning Equipment List Name
  {36a2752e-cf60-4ce0-be85-983550184c34}, !- Zone Air Inlet Port List
  {9cf154a0-01a5-4c23-a04d-d92df0af5a90}, !- Zone Air Exhaust Port List
  {6cdb362b-634c-4260-9f2f-69034754e045}, !- Zone Air Node Name
  {206f1f62-2f98-407b-9689-e855656ce4e1}, !- Zone Return Air Port List
  ,                                       !- Primary Daylighting Control Name
  ,                                       !- Fraction of Zone Controlled by Primary Daylighting Control
  ,                                       !- Secondary Daylighting Control Name
  ,                                       !- Fraction of Zone Controlled by Secondary Daylighting Control
  ,                                       !- Illuminance Map Name
  {3521f778-cd21-4b73-9c49-1d58f6b1cbd1}, !- Group Rendering Name
  ,                                       !- Thermostat Name
  No;                                     !- Use Ideal Air Loads

OS:Node,
  {a36bc6e0-8322-46d6-8d14-717e0c400056}, !- Handle
  Node 1,                                 !- Name
  {6cdb362b-634c-4260-9f2f-69034754e045}, !- Inlet Port
  ;                                       !- Outlet Port

OS:Connection,
  {6cdb362b-634c-4260-9f2f-69034754e045}, !- Handle
  {1168d289-1099-477e-9918-b0b2aa1bf290}, !- Name
  {2b7e2e49-161f-46cd-a9f2-c907f25b3743}, !- Source Object
  11,                                     !- Outlet Port
  {a36bc6e0-8322-46d6-8d14-717e0c400056}, !- Target Object
  2;                                      !- Inlet Port

OS:PortList,
  {36a2752e-cf60-4ce0-be85-983550184c34}, !- Handle
  {ddc48b4c-bdd6-40dd-b428-8eae47183262}, !- Name
  {2b7e2e49-161f-46cd-a9f2-c907f25b3743}; !- HVAC Component

OS:PortList,
  {9cf154a0-01a5-4c23-a04d-d92df0af5a90}, !- Handle
  {9db79ed3-a3a0-49ee-8336-8ff5a05608ce}, !- Name
  {2b7e2e49-161f-46cd-a9f2-c907f25b3743}; !- HVAC Component

OS:PortList,
  {206f1f62-2f98-407b-9689-e855656ce4e1}, !- Handle
  {71e6a320-4f90-48f8-945e-bbe5506bdd39}, !- Name
  {2b7e2e49-161f-46cd-a9f2-c907f25b3743}; !- HVAC Component

OS:Sizing:Zone,
  {7b77a299-9786-483a-bb13-0a811075b3c5}, !- Handle
  {2b7e2e49-161f-46cd-a9f2-c907f25b3743}, !- Zone or ZoneList Name
  SupplyAirTemperature,                   !- Zone Cooling Design Supply Air Temperature Input Method
  14,                                     !- Zone Cooling Design Supply Air Temperature {C}
  11.11,                                  !- Zone Cooling Design Supply Air Temperature Difference {deltaC}
  SupplyAirTemperature,                   !- Zone Heating Design Supply Air Temperature Input Method
  40,                                     !- Zone Heating Design Supply Air Temperature {C}
  11.11,                                  !- Zone Heating Design Supply Air Temperature Difference {deltaC}
  0.0085,                                 !- Zone Cooling Design Supply Air Humidity Ratio {kg-H2O/kg-air}
  0.008,                                  !- Zone Heating Design Supply Air Humidity Ratio {kg-H2O/kg-air}
  ,                                       !- Zone Heating Sizing Factor
  ,                                       !- Zone Cooling Sizing Factor
  DesignDay,                              !- Cooling Design Air Flow Method
  ,                                       !- Cooling Design Air Flow Rate {m3/s}
  ,                                       !- Cooling Minimum Air Flow per Zone Floor Area {m3/s-m2}
  ,                                       !- Cooling Minimum Air Flow {m3/s}
  ,                                       !- Cooling Minimum Air Flow Fraction
  DesignDay,                              !- Heating Design Air Flow Method
  ,                                       !- Heating Design Air Flow Rate {m3/s}
  ,                                       !- Heating Maximum Air Flow per Zone Floor Area {m3/s-m2}
  ,                                       !- Heating Maximum Air Flow {m3/s}
  ,                                       !- Heating Maximum Air Flow Fraction
  ,                                       !- Design Zone Air Distribution Effectiveness in Cooling Mode
  ,                                       !- Design Zone Air Distribution Effectiveness in Heating Mode
  No,                                     !- Account for Dedicated Outdoor Air System
  NeutralSupplyAir,                       !- Dedicated Outdoor Air System Control Strategy
  autosize,                               !- Dedicated Outdoor Air Low Setpoint Temperature for Design {C}
  autosize;                               !- Dedicated Outdoor Air High Setpoint Temperature for Design {C}

OS:ZoneHVAC:EquipmentList,
  {6c0a324b-cf21-48d7-8e8e-7077f5622d7b}, !- Handle
  Zone HVAC Equipment List 1,             !- Name
  {2b7e2e49-161f-46cd-a9f2-c907f25b3743}; !- Thermal Zone

OS:Rendering:Color,
  {3521f778-cd21-4b73-9c49-1d58f6b1cbd1}, !- Handle
  Rendering Color 1,                      !- Name
  221,                                    !- Rendering Red Value
  204,                                    !- Rendering Green Value
  119;                                    !- Rendering Blue Value

OS:SpaceType,
  {82cdc383-54a7-4340-bc13-fda2c29619db}, !- Handle
  Space Type 2,                           !- Name
  ,                                       !- Default Construction Set Name
  ,                                       !- Default Schedule Set Name
  {1e012a67-a03f-4ccd-9ab9-74d001da5cc9}; !- Group Rendering Name

OS:Rendering:Color,
  {1e012a67-a03f-4ccd-9ab9-74d001da5cc9}, !- Handle
  Rendering Color 2,                      !- Name
  51,                                     !- Rendering Red Value
  34,                                     !- Rendering Green Value
  136;                                    !- Rendering Blue Value

OS:BuildingStory,
  {d0d8a81b-9cb4-4eae-9df8-0a77c05d4192}, !- Handle
  Story 1,                                !- Name
  0,                                      !- Nominal Z Coordinate {m}
  2.4384,                                 !- Nominal Floor to Floor Height {m}
  ,                                       !- Default Construction Set Name
  ,                                       !- Default Schedule Set Name
  {9bdf9748-04da-43a8-befe-4c67a6350e45}, !- Group Rendering Name
  2.4384;                                 !- Nominal Floor to Ceiling Height {m}

OS:Rendering:Color,
  {9bdf9748-04da-43a8-befe-4c67a6350e45}, !- Handle
  Rendering Color 3,                      !- Name
  136,                                    !- Rendering Red Value
  204,                                    !- Rendering Green Value
  238;                                    !- Rendering Blue Value

OS:Space,
  {2832082a-95e8-4986-b1ec-8232ce528fc5}, !- Handle
  Space 1 - 1,                            !- Name
  {33c50200-a924-4e68-ab56-c4d0db1bfc13}, !- Space Type Name
  {2c723c23-e052-42af-bdcd-fc6babed2ed4}, !- Default Construction Set Name
  {31909f9c-a770-4ded-8e06-1ccbc1830516}, !- Default Schedule Set Name
  -0,                                     !- Direction of Relative North {deg}
  0,                                      !- X Origin {m}
  0,                                      !- Y Origin {m}
  0,                                      !- Z Origin {m}
  {d0d8a81b-9cb4-4eae-9df8-0a77c05d4192}, !- Building Story Name
  {416ba610-c1e1-4e56-a58c-c4195f5a6c58}, !- Thermal Zone Name
  ,                                       !- Part of Total Floor Area
  ,                                       !- Design Specification Outdoor Air Object Name
  ;                                       !- Building Unit Name

OS:Surface,
  {8bbe4421-353a-44f5-8749-80234a373d60}, !- Handle
  Face 1,                                 !- Name
  RoofCeiling,                            !- Surface Type
  ,                                       !- Construction Name
  {2832082a-95e8-4986-b1ec-8232ce528fc5}, !- Space Name
  Outdoors,                               !- Outside Boundary Condition
  ,                                       !- Outside Boundary Condition Object
  SunExposed,                             !- Sun Exposure
  WindExposed,                            !- Wind Exposure
  ,                                       !- View Factor to Ground
  ,                                       !- Number of Vertices
  -28.956, 10.668, 4.572,                 !- X,Y,Z Vertex 1 {m}
  -28.956, 35.052, 4.572,                 !- X,Y,Z Vertex 2 {m}
  -53.34, 35.052, 4.572,                  !- X,Y,Z Vertex 3 {m}
  -53.34, 10.668, 4.572;                  !- X,Y,Z Vertex 4 {m}

OS:Surface,
  {5f473a98-42ed-4677-9a30-a55fc6cdb18c}, !- Handle
  Face 0,                                 !- Name
  Floor,                                  !- Surface Type
  ,                                       !- Construction Name
  {2832082a-95e8-4986-b1ec-8232ce528fc5}, !- Space Name
  Ground,                                 !- Outside Boundary Condition
  ,                                       !- Outside Boundary Condition Object
  NoSun,                                  !- Sun Exposure
  NoWind,                                 !- Wind Exposure
  ,                                       !- View Factor to Ground
  ,                                       !- Number of Vertices
  -28.956, 35.052, 0,                     !- X,Y,Z Vertex 1 {m}
  -28.956, 10.668, 0,                     !- X,Y,Z Vertex 2 {m}
  -53.34, 10.668, 0,                      !- X,Y,Z Vertex 3 {m}
  -53.34, 35.052, 0;                      !- X,Y,Z Vertex 4 {m}

OS:Surface,
  {efab7268-3a69-4d4c-a21f-7ec7a668e696}, !- Handle
  Face 5,                                 !- Name
  Wall,                                   !- Surface Type
  ,                                       !- Construction Name
  {2832082a-95e8-4986-b1ec-8232ce528fc5}, !- Space Name
  Outdoors,                               !- Outside Boundary Condition
  ,                                       !- Outside Boundary Condition Object
  SunExposed,                             !- Sun Exposure
  WindExposed,                            !- Wind Exposure
  ,                                       !- View Factor to Ground
  ,                                       !- Number of Vertices
  -28.956, 35.052, 4.572,                 !- X,Y,Z Vertex 1 {m}
  -28.956, 35.052, 0,                     !- X,Y,Z Vertex 2 {m}
  -53.34, 35.052, 0,                      !- X,Y,Z Vertex 3 {m}
  -53.34, 35.052, 4.572;                  !- X,Y,Z Vertex 4 {m}

OS:Surface,
  {4e851277-12c9-4a6f-9236-a12e4d743b4d}, !- Handle
  Face 2,                                 !- Name
  Wall,                                   !- Surface Type
  ,                                       !- Construction Name
  {2832082a-95e8-4986-b1ec-8232ce528fc5}, !- Space Name
  Outdoors,                               !- Outside Boundary Condition
  ,                                       !- Outside Boundary Condition Object
  SunExposed,                             !- Sun Exposure
  WindExposed,                            !- Wind Exposure
  ,                                       !- View Factor to Ground
  ,                                       !- Number of Vertices
  -28.956, 10.668, 4.572,                 !- X,Y,Z Vertex 1 {m}
  -28.956, 10.668, 0,                     !- X,Y,Z Vertex 2 {m}
  -28.956, 35.052, 0,                     !- X,Y,Z Vertex 3 {m}
  -28.956, 35.052, 4.572;                 !- X,Y,Z Vertex 4 {m}

OS:Surface,
  {fe55f5a7-5cf8-493d-b734-ee6f8ca4d7e0}, !- Handle
  Face 3,                                 !- Name
  Wall,                                   !- Surface Type
  ,                                       !- Construction Name
  {2832082a-95e8-4986-b1ec-8232ce528fc5}, !- Space Name
  Outdoors,                               !- Outside Boundary Condition
  ,                                       !- Outside Boundary Condition Object
  SunExposed,                             !- Sun Exposure
  WindExposed,                            !- Wind Exposure
  ,                                       !- View Factor to Ground
  ,                                       !- Number of Vertices
  -53.34, 10.668, 4.572,                  !- X,Y,Z Vertex 1 {m}
  -53.34, 10.668, 0,                      !- X,Y,Z Vertex 2 {m}
  -28.956, 10.668, 0,                     !- X,Y,Z Vertex 3 {m}
  -28.956, 10.668, 4.572;                 !- X,Y,Z Vertex 4 {m}

OS:Surface,
  {3cb6bffe-3fa2-4e4b-aa22-cacbcae50c3b}, !- Handle
  Face 4,                                 !- Name
  Wall,                                   !- Surface Type
  ,                                       !- Construction Name
  {2832082a-95e8-4986-b1ec-8232ce528fc5}, !- Space Name
  Outdoors,                               !- Outside Boundary Condition
  ,                                       !- Outside Boundary Condition Object
  SunExposed,                             !- Sun Exposure
  WindExposed,                            !- Wind Exposure
  ,                                       !- View Factor to Ground
  ,                                       !- Number of Vertices
  -53.34, 35.052, 4.572,                  !- X,Y,Z Vertex 1 {m}
  -53.34, 35.052, 0,                      !- X,Y,Z Vertex 2 {m}
  -53.34, 10.668, 0,                      !- X,Y,Z Vertex 3 {m}
  -53.34, 10.668, 4.572;                  !- X,Y,Z Vertex 4 {m}

OS:ThermalZone,
  {416ba610-c1e1-4e56-a58c-c4195f5a6c58}, !- Handle
  Thermal Zone 1,                         !- Name
  1,                                      !- Multiplier
  ,                                       !- Ceiling Height {m}
  ,                                       !- Volume {m3}
  ,                                       !- Floor Area {m2}
  ,                                       !- Zone Inside Convection Algorithm
  ,                                       !- Zone Outside Convection Algorithm
  ,                                       !- Zone Conditioning Equipment List Name
  {0c11d4b9-0dad-4395-90d7-f560d14bbc6b}, !- Zone Air Inlet Port List
  {99cc38b6-9fcc-4b3d-9aba-d79c69c3fe39}, !- Zone Air Exhaust Port List
  {bbdc0cba-8e81-44e8-af66-953ec2db3a5a}, !- Zone Air Node Name
  {545db739-4159-4d32-ac54-bade5d1f7985}, !- Zone Return Air Port List
  ,                                       !- Primary Daylighting Control Name
  ,                                       !- Fraction of Zone Controlled by Primary Daylighting Control
  ,                                       !- Secondary Daylighting Control Name
  ,                                       !- Fraction of Zone Controlled by Secondary Daylighting Control
  ,                                       !- Illuminance Map Name
  {9d8eb936-b7d5-4844-b30f-57447af46148}, !- Group Rendering Name
  ,                                       !- Thermostat Name
  No;                                     !- Use Ideal Air Loads

OS:Node,
  {bb914887-35b7-41ef-9fe8-822a6e99e409}, !- Handle
  Node 2,                                 !- Name
  {bbdc0cba-8e81-44e8-af66-953ec2db3a5a}, !- Inlet Port
  ;                                       !- Outlet Port

OS:Connection,
  {bbdc0cba-8e81-44e8-af66-953ec2db3a5a}, !- Handle
  {627bc4b0-e78a-4a39-8b18-7a86f35ea38b}, !- Name
  {416ba610-c1e1-4e56-a58c-c4195f5a6c58}, !- Source Object
  11,                                     !- Outlet Port
  {bb914887-35b7-41ef-9fe8-822a6e99e409}, !- Target Object
  2;                                      !- Inlet Port

OS:PortList,
  {0c11d4b9-0dad-4395-90d7-f560d14bbc6b}, !- Handle
  {7eb83bee-a2e9-4de2-a4ab-4f7bf24de0fb}, !- Name
  {416ba610-c1e1-4e56-a58c-c4195f5a6c58}; !- HVAC Component

OS:PortList,
  {99cc38b6-9fcc-4b3d-9aba-d79c69c3fe39}, !- Handle
  {e338cc31-e64c-47bc-8a52-2d3d9a807609}, !- Name
  {416ba610-c1e1-4e56-a58c-c4195f5a6c58}; !- HVAC Component

OS:PortList,
  {545db739-4159-4d32-ac54-bade5d1f7985}, !- Handle
  {f62389a3-5178-4b82-a34b-de6ce51f411f}, !- Name
  {416ba610-c1e1-4e56-a58c-c4195f5a6c58}; !- HVAC Component

OS:Sizing:Zone,
  {36f9b368-88d2-402d-a43d-36ca47fbef63}, !- Handle
  {416ba610-c1e1-4e56-a58c-c4195f5a6c58}, !- Zone or ZoneList Name
  SupplyAirTemperature,                   !- Zone Cooling Design Supply Air Temperature Input Method
  14,                                     !- Zone Cooling Design Supply Air Temperature {C}